# Name file for MT3DMS, generated by Flopy version 3.3.5.
LIST              16  my_model_mt.list
FTL               10  mt3d_link.ftl 
BTN               31  my_model_mt.btn
ADV               32  my_model_mt.adv
DSP               33  my_model_mt.dsp
SSM               34  my_model_mt.ssm
GCG               35  my_model_mt.gcg
