# RIV package for MODFLOW-2005 generated by Flopy 3.3.5
      3707         0
      3707         0 # stress period 1
         1        32       224          742.56         17426.6          739.56
         1        31       224          742.56        26564.84          739.56
         1        30       224          742.56        28924.62          739.56
         1        29       224          742.56        24510.23          739.56
         1        28       224          742.56        19437.67          739.56
         1        33       225          742.56         23191.9          739.56
         1        32       225          742.56        26833.36          739.56
         1        31       225          742.56        21882.46          739.56
         1        30       225           741.0        29943.76           738.0
         1        29       225           740.0        29943.76           737.0
         1        28       225           742.0         28086.0           739.0
         1        27       225          742.56        25961.55          739.56
         1        26       225          742.19        27640.47          739.19
         1        25       225          742.66        27416.26          739.66
         1        24       225           744.0        29137.34           741.0
         1       195       225          764.95           177.0          763.95
         1       194       225          764.57          983.04          763.57
         1       193       225          764.56          556.75          763.56
         1        94       140          848.34        17702.63          845.34
         1        98       148          820.74        20644.92          817.74
         1       100       149           819.0        17354.92           816.0
         1       103       161          809.03        19590.75          806.03
         1       104       148           810.0          489.22           809.0
         1        99       148           820.0          231.96           819.0
         1       103       149           810.0          182.06           809.0
         1       109       168           778.0          696.42           777.0
         1       109       169           778.0          762.19           777.0
         1       108       147          804.57          601.21          803.57
         1       107       147          806.34          532.22          805.34
         1       106       147          806.38          224.22          805.38
         1       109       148          800.39          538.89          799.39
         1       108       148          804.57           97.66          803.57
         1       106       148          806.38          362.97          805.38
         1       105       148          807.83          529.46          806.83
         1       103       148          812.03          314.83          811.03
         1       102       148          812.88          515.21          811.88
         1       101       148          813.59          499.72          812.59
         1       100       148          816.26          381.59          815.26
         1       109       149          800.39          147.72          799.39
         1        99       149          820.74           86.85          819.74
         1        98       149          820.74           283.4          819.74
         1        97       149          820.74          179.99          819.74
         1        97       150          820.74          136.22          819.74
         1        96       150          820.74          314.98          819.74
         1        95       150          820.74            69.6          819.74
         1       111       151          797.28          490.52          796.28
         1       111       152          796.03          493.28          795.03
         1       111       153          794.83          495.66          793.83
         1       111       154          794.65          496.65          793.65
         1       111       155          791.18          542.49          790.18
         1       111       156          789.96          278.34          788.96
         1       110       156          789.96          282.55          788.96
         1       110       157          789.96           512.6          788.96
         1       110       158          788.76          548.32          787.76
         1       111       159          786.99          501.18          785.99
         1       110       159          789.24           94.67          788.24
         1       111       160          786.07          512.52          785.07
         1       111       161           784.8          550.08           783.8
         1       118       162          794.79          274.28          793.79
         1       117       162          794.79          150.78          793.79
         1       112       162          784.29          224.76          783.29
         1       111       162          784.38          306.24          783.38
         1       117       163          794.79          315.29          793.79
         1       112       163          783.64          495.66          782.64
         1       117       164          792.63          357.83          791.63
         1       112       164          783.56          484.77          782.56
         1       117       165          789.84          234.87          788.84
         1       116       165          789.84          188.11          788.84
         1       112       165          779.71          486.61          778.71
         1       116       166          789.84          284.55          788.84
         1       115       166          789.69          141.89          788.69
         1       112       166           779.7          275.35           778.7
         1       111       166           779.7          518.65           778.7
         1       110       166           779.7          117.05           778.7
         1       115       167           785.3          244.07           784.3
         1       114       167          784.76          326.86          783.76
         1       113       167          784.28          318.58          783.28
         1       112       167           779.7          315.21           778.7
         1       111       167           779.7          315.21           778.7
         1       110       167           779.7          903.85           778.7
         1       110       168           779.7          158.91           778.7
         1       109       170          778.32          771.24          777.32
         1       109       171          778.52           35.57          777.52
         1       108       171          773.39          905.69          772.39
         1       108       172          773.39          232.88          772.39
         1       107       172          773.39          852.95          772.39
         1       106       172          773.39           275.2          772.39
         1       106       173          773.39          618.38          772.39
         1       105       173          772.62          471.36          771.62
         1       105       174          772.62           487.3          771.62
         1       111       149          799.96          264.92          798.96
         1       110       149          799.96          578.75          798.96
         1       111       150          797.38          532.61          796.38
         1       195        59           842.0        15181.88           839.0
         1       199        68           866.0         18421.9           863.0
         1       186        71           935.0        17719.04           932.0
         1       189        37           802.0           787.1           801.0
         1       190        40           803.0         1015.92           802.0
         1       191        41           804.0         2638.27           803.0
         1       200        46           811.0          229.58           810.0
         1       190        39          799.69         2043.11          798.69
         1       191        40          804.25         3045.93          803.25
         1       198        45          809.26           748.7          808.26
         1       190        38          799.46         2315.93          798.46
         1       189        35          798.44         2307.12          797.44
         1       194        43          806.23         2107.89          805.23
         1       197        44           806.4         1332.13           805.4
         1       192        41          804.25         2453.68          803.25
         1       195        43          806.23         2730.56          805.23
         1       199        45           806.4         2373.12           805.4
         1       188        33          796.35         2047.41          795.35
         1       187        33          795.81         2322.29          794.81
         1       189        34          797.07         2904.65          796.07
         1       188        34          796.86         1177.97          795.86
         1       189        36          798.61         2468.63          797.61
         1       190        37          798.92         1569.23          797.92
         1       191        39          802.99          528.39          801.99
         1       193        41          805.38         1433.01          804.38
         1       194        42          805.39          614.55          804.39
         1       193        42          805.39         2539.77          804.39
         1       197        43           806.4         1361.56           805.4
         1       196        43           806.4         2307.19           805.4
         1       198        44           806.4         2408.76           805.4
         1       200        45          807.07         1809.16          806.07
         1       204        46          807.07         2083.51          806.07
         1       203        46          807.07         2008.69          806.07
         1       202        46          807.07         1980.33          806.07
         1       201        46          807.07         2022.11          806.07
         1       205        47          807.07          2159.4          806.07
         1       204        47          807.07          542.03          806.07
         1       149         7          786.16        15224.81          783.16
         1       178        44           825.0        20630.74           822.0
         1       178        45          826.79        20982.36          823.79
         1       177        46           826.0        28726.23           823.0
         1       175         8          790.31        22081.99          787.31
         1       175         9          790.31        18787.55          787.31
         1        19        62         1080.35        15771.82         1077.35
         1       178        89          877.13        15321.39          874.13
         1       183        91          888.78        16202.48          885.78
         1       176        97           863.0        15316.26           860.0
         1       188        99           885.0        20910.61           882.0
         1       186       109           850.0        20668.07           847.0
         1       185       109           849.0        25818.51           846.0
         1       186       110           850.0        16779.24           847.0
         1       193        94          908.88        24095.82          905.88
         1       189        98          887.62        20462.94          884.62
         1       188        98          887.62         16869.0          884.62
         1       185       108          852.86        17026.53          849.86
         1       163       103          849.23        17777.14          846.23
         1       191       136           884.0        15609.16           881.0
         1       193       142           885.0        15595.13           882.0
         1       184       142          883.36        18222.98          880.36
         1       196       143           893.0        24633.03           890.0
         1       187       146           878.0        15462.29           875.0
         1       186       146           876.0        19452.46           873.0
         1       194       147           894.0        20125.12           891.0
         1       195       148           893.0        18379.66           890.0
         1       183       148           876.0        19785.46           873.0
         1       198       149           895.0        19958.01           892.0
         1       197       149           890.0        26376.57           887.0
         1       198       150           897.0        24378.15           894.0
         1       167       150           890.0        15500.69           887.0
         1       185       151           879.0        15150.45           876.0
         1       184       151           876.0        22194.06           873.0
         1       185       152          879.52        17894.12          876.52
         1       184       152           876.0        24831.18           873.0
         1       185       153          879.52        17804.82          876.52
         1       164       142           887.2        16440.88           884.2
         1       165       143           887.2        29943.76           884.2
         1       164       143           887.2        29762.54           884.2
         1       164       144           887.2        16632.52           884.2
         1       166       145          884.67        25700.08          881.67
         1       121        86           843.0        16292.62           840.0
         1       134        91           832.0        21708.06           829.0
         1       109        97          859.75        15898.61          856.75
         1       142       101          858.94        21738.34          855.94
         1       158       142          879.74        21092.13          876.74
         1       157       144          887.56         18999.5          884.56
         1       159       145          889.65        15668.18          886.65
         1       158       145           888.0        26625.17           885.0
         1       157       145           887.0        17382.52           884.0
         1       159       146           886.0        22841.73           883.0
         1       158       146           887.0        24549.17           884.0
         1       130       148          930.31        27400.46          927.31
         1       129       148           917.0        23049.93           914.0
         1       130       149           923.0        29943.68           920.0
         1       129       149           914.0        24345.88           911.0
         1       132       103           889.0        17601.22           886.0
         1       112       110          956.41        23311.79          953.41
         1       139       111          934.64        16817.26          931.64
         1       139       119          916.92        18603.96          913.92
         1       154       120          884.96        16400.33          881.96
         1       126       120          924.71        23214.36          921.71
         1       126       121          924.27        20541.21          921.27
         1       142       132           916.1        19938.38           913.1
         1       155       135           865.0        15494.63           862.0
         1       147       142          896.24        29786.61          893.24
         1       139       105           883.7         18036.7           880.7
         1        48        64          994.22        14975.44          991.22
         1        83        75          888.03        15821.27          885.03
         1        86        76           886.0         18796.9           883.0
         1        82        76          888.03        15115.72          885.03
         1        88        77          880.42        20213.04          877.42
         1        87        77           882.0        15578.57           879.0
         1        86        77           881.0        28899.47           878.0
         1        90        78          879.83        16848.38          876.83
         1        25        94           972.0        20911.92           969.0
         1        80        66          918.29        19195.36          915.29
         1        65        67         1037.09        15801.72         1034.09
         1       104        52           878.0        16286.18           875.0
         1       141        15           778.0        26875.14           775.0
         1       142        16          779.02        16433.44          776.02
         1       141        16          778.69        29943.76          775.69
         1       141        17           779.0        22852.46           776.0
         1       140        19          780.33        21120.11          777.33
         1       139        22          781.31        15170.76          778.31
         1       137        24          781.64        24738.51          778.64
         1       137        25          783.28        26394.35          780.28
         1       140        26          784.92         19080.6          781.92
         1       139        26          783.61        21205.28          780.61
         1       139        27          784.14        28191.94          781.14
         1       139        28          784.58        25133.52          781.58
         1       139        29          784.92        15705.13          781.92
         1       136        33          784.96        18560.95          781.96
         1       136        34          787.34        19635.59          784.34
         1       136        35          787.82        19894.46          784.82
         1       136        36          787.55         19666.1          784.55
         1       137        38          789.25         29700.6          786.25
         1       138        40           794.0        17457.03           791.0
         1       138        41           794.0        22518.32           791.0
         1       137        43           793.0        18378.82           790.0
         1         5       109          968.61        15076.71          965.61
         1        12       122          873.27        22042.21          870.27
         1         9       122          863.97        24775.99          860.97
         1         7       122          862.66        16449.69          859.66
         1         9       123          863.97        17857.86          860.97
         1         8       124          860.39        29943.76          857.39
         1         8       125          860.39        29448.79          857.39
         1         9       126          861.64        28751.22          858.64
         1         8       126           860.0        29943.76           857.0
         1         8       127           861.0        28831.56           858.0
         1         7       127           860.0        29943.76           857.0
         1         5       127           859.0         20692.6           856.0
         1         7       128          860.39        18799.89          857.39
         1        16       136           884.0        20742.89           881.0
         1        15       136           884.0        18305.76           881.0
         1        16       137           883.0        24527.09           880.0
         1        15       137           881.0        29943.83           878.0
         1        15       138           882.0        29027.64           879.0
         1        14       138           880.0        16864.63           877.0
         1        13       143           887.0        20271.38           884.0
         1        13       144           887.0        29266.27           884.0
         1        13       145          884.82        25162.26          881.82
         1        12       145           881.0        18391.08           878.0
         1        13       146          882.97        24728.93          879.97
         1        12       146           878.0        17009.36           875.0
         1        13       147          880.62        19645.86          877.62
         1        12       147           877.0        21610.33           874.0
         1        15       148           885.0        15328.37           882.0
         1        13       148          879.72        18951.67          876.72
         1        12       148           878.0        20909.23           875.0
         1        12       149           878.0        19512.41           875.0
         1        12       150          879.11        17824.52          876.11
         1        14       151           874.5         21914.5           871.5
         1        10       155           874.0        16186.92           871.0
         1        16       167           866.0        16542.45           863.0
         1        23       173          783.65        29631.84          780.65
         1        22       173           782.0        29943.76           779.0
         1        21       173           781.0        27884.24           778.0
         1         2       173           845.0        20932.38           842.0
         1         1       173           845.0        18249.73           842.0
         1        23       174          785.25        21863.83          782.25
         1        22       174           782.0        29943.76           779.0
         1        21       174           780.0        29943.76           777.0
         1        20       174          783.65        25268.97          780.65
         1        19       174          783.65        16821.86          780.65
         1        11       174          804.89        16453.68          801.89
         1        22       175          784.88        21456.17          781.88
         1        10       180           806.0         21245.6           803.0
         1         7       182           794.2        26227.32           791.2
         1         6       182           794.2        27058.43           791.2
         1         7       183           794.2        29859.82           791.2
         1         6       183           794.0        29943.76           791.0
         1         5       183           794.0        18294.27           791.0
         1         8       184          794.05        19095.93          791.05
         1         7       184           794.2        27307.48           791.2
         1         6       184           794.0        29943.76           791.0
         1         5       184           794.0        29662.35           791.0
         1         4       184           794.2        20097.83           791.2
         1         3       184          794.74         16720.9          791.74
         1         5       185          793.89        29943.76          790.89
         1         4       185          793.89        29943.83          790.89
         1         3       185           794.0        29943.76           791.0
         1         2       185           793.0        29943.76           790.0
         1         7       186          793.87        21997.59          790.87
         1         4       186          793.89        29943.76          790.89
         1         3       186          793.89        29943.83          790.89
         1         2       186           794.0        29943.76           791.0
         1         1       186           794.0        15385.02           791.0
         1         7       187          793.91        18152.99          790.91
         1         4       187          793.89        29943.83          790.89
         1         3       187          793.89        29943.76          790.89
         1         2       187          793.89        29943.76          790.89
         1         1       187          793.89        21535.82          790.89
         1         6       188          793.89        29943.76          790.89
         1         2       188          793.89        29943.76          790.89
         1         1       188           793.0        29943.76           790.0
         1         5       189          793.89        29943.76          790.89
         1         4       189           793.0        29943.76           790.0
         1         1       189           793.0        29943.76           790.0
         1         5       190          793.89        15383.25          790.89
         1         1       190          793.89        23075.07          790.89
         1         5       167          805.54        21676.02          802.54
         1         6       189          793.89        15386.24          790.89
         1        13        76         1059.74        17221.85         1056.74
         1         7        93          997.98        19184.01          994.98
         1         7        94          991.82        15241.13          988.82
         1        26       107          950.31        17877.26          947.31
         1        34       204          751.74         25903.3          748.74
         1        26       208          801.37        20024.62          798.37
         1        46       217          739.57        17950.31          736.57
         1        44       217          736.49        15354.89          733.49
         1        43       217          736.49         19778.1          733.49
         1        47       218          737.24        28000.91          734.24
         1        44       218          736.49        20358.23          733.49
         1        41       219          734.55        28089.14          731.55
         1        40       219           739.6        29888.72           736.6
         1        39       219           739.6        29943.76           736.6
         1        38       219           739.6        17725.32           736.6
         1        47       221           738.0        15259.53           735.0
         1        27       149          896.23         22443.5          893.23
         1        30       150          898.38        15659.29          895.38
         1        33       154           887.0        16045.33           884.0
         1        39       167          769.78        16272.39          766.78
         1        37       167          769.78        15175.36          766.78
         1        35       167          769.78        21376.07          766.78
         1        34       167          769.78        15823.41          766.78
         1        47       168           801.0        28012.87           798.0
         1        56       170          825.91         22038.3          822.91
         1        55       170          822.84        19166.76          819.84
         1        42       174           768.0        23988.96           765.0
         1        41       174           769.0         27515.6           766.0
         1        36       174           768.0        27788.65           765.0
         1        42       175           769.0        24480.56           766.0
         1        41       175          769.78        29943.76          766.78
         1        40       175          769.78        27737.44          766.78
         1        86        81          899.76        22794.05          896.76
         1        86        82          899.59         18126.7          896.59
         1        82        85          908.62        15792.29          905.62
         1        63        91          942.23        22347.53          939.23
         1        62        91          944.69        23372.19          941.69
         1        91        92          881.05        23030.92          878.05
         1        64        92          946.04        16439.96          943.04
         1        63        92           945.0        29301.15           942.0
         1        89        94           877.0        17828.27           874.0
         1        91        97          879.76        19694.62          876.76
         1        90       105          878.63        18298.25          875.63
         1        23       126          913.07        20527.95          910.07
         1        34       141          878.41        24916.89          875.41
         1        34       144           892.3        20326.88           889.3
         1        34       145          897.61        18737.95          894.61
         1        84       148           836.0        16507.72           833.0
         1        77       151          801.94         22898.3          798.94
         1        75       151          806.25        17981.59          803.25
         1        81       152          815.44        17766.11          812.44
         1        80       152          804.51        15987.76          801.51
         1        79       152          801.94        16854.74          798.94
         1        78       152          801.94         29537.1          798.94
         1        77       152          801.94        29943.68          798.94
         1        76       152           801.0        25107.38           798.0
         1        75       152          801.94        26636.36          798.94
         1        66       152          801.94        21582.89          798.94
         1        81       153          808.61        21022.76          805.61
         1        80       153          804.51        17478.57          801.51
         1        78       153          801.94        28496.11          798.94
         1        77       153          801.94        28336.28          798.94
         1        76       153           801.0        29926.82           798.0
         1        75       153           800.0        29943.76           797.0