# PCG package for MODFLOW-2005 generated by Flopy 3.3.5
100 50 1 0
0.001 1 0.98 0 0 3 0.7 
