# WEL package for  MODFLOW-2005, generated by Flopy.
       318         0 
       318         0 # stress period 1
         1        60        20             0.0
         1       136        23             0.0
         1       181        28             0.0
         1       150        29             0.0
         1       129        29             0.0
         1       111        30           -88.0
         1       111        32           -88.0
         1        40        33             0.0
         1       116        35             0.0
         1       116        35         -8816.0
         1       110        35         -1924.0
         1       110        36         -5771.0
         1       111        37           -39.0
         1       154        40             0.0
         1       155        40             0.0
         1       155        41             0.0
         1        30        43          -481.0
         1        27        45          -310.0
         1       158        46             0.0
         1        61        46             0.0
         1        61        46             0.0
         1        62        47             0.0
         1       153        47          -105.0
         1       160        48        -31722.0
         1       160        48        -16284.0
         1        59        51        -49609.0
         1        59        51             0.0
         1        59        54        -28069.0
         1        61        55        -22495.0
         1        32        69             0.0
         1       181        71            -6.0
         1        78        73             0.0
         1       122        74             0.0
         1        52        75             0.0
         1        51        75             0.0
         1       121        76             0.0
         1        23        76          -791.0
         1        58        76       -112242.0
         1        58        76       -112242.0
         1        58        76             0.0
         1       129        79             0.0
         1       129        79             0.0
         1       129        79             0.0
         1       129        79             0.0
         1       129        79             0.0
         1        49        79             0.0
         1        30        82             0.0
         1        58        84        -43486.0
         1       174        85           -62.0
         1        59        87             0.0
         1       183        88             0.0
         1        58        88        -53236.0
         1        58        88         -1692.0
         1        60        88          -924.0
         1        60        88         -1420.0
         1       123        88             0.0
         1        83        95           -11.0
         1        83        95             0.0
         1       114        97             0.0
         1       114        97             0.0
         1       113        98             0.0
         1       116       105           -15.0
         1         8       109             0.0
         1       102       111        -59204.0
         1       102       112        -59204.0
         1       104       112        -59204.0
         1       100       114             0.0
         1       100       114             0.0
         1        99       114             0.0
         1        99       114             0.0
         1       200       116             0.0
         1        83       117             0.0
         1       106       117             0.0
         1       106       118       -109951.0
         1        49       118             0.0
         1       108       119             0.0
         1       106       119       -109951.0
         1       109       119       -109951.0
         1       106       119             0.0
         1       188       120             0.0
         1       189       120             0.0
         1       189       120             0.0
         1       188       120         -8851.0
         1        41       124             0.0
         1         4       124             0.0
         1        87       125             0.0
         1        87       125             0.0
         1        17       125             0.0
         1        10       126             0.0
         1        11       126             0.0
         1        11       126             0.0
         1        10       127             0.0
         1        30       127             0.0
         1        30       127             0.0
         1        42       128             0.0
         1        18       129          -363.0
         1        11       129             0.0
         1        17       130          -363.0
         1        59       130             0.0
         1       113       130             0.0
         1        92       131        -11324.0
         1       153       131          -252.0
         1        10       131             0.0
         1        10       131             0.0
         1        10       131             0.0
         1        81       132          -806.0
         1        81       132         -2120.0
         1        38       134             0.0
         1        33       134        -23167.0
         1       117       134             0.0
         1       117       134             0.0
         1       117       134             0.0
         1        83       134          -175.0
         1        95       135         -1164.0
         1        26       136        -91810.0
         1        17       139          -105.0
         1        19       139         -1397.0
         1        55       139         -9878.0
         1       130       140         -2560.0
         1       130       141         -2259.0
         1       130       141          -583.0
         1        54       141        -15179.0
         1        18       143        -59556.0
         1       162       145         -1377.0
         1       132       146        -40868.0
         1       132       146             0.0
         1         2       147        -74658.0
         1       154       148         -1046.0
         1       133       148         -1963.0
         1        81       149          -616.0
         1        23       150        -41402.0
         1       142       150         -1102.0
         1        82       150             0.0
         1        82       150             0.0
         1       142       150          -650.0
         1       135       150             0.0
         1         8       151        -55309.0
         1        43       151        -75089.0
         1        17       152         -2793.0
         1        17       152           -14.0
         1       111       154         -1925.0
         1       132       156             0.0
         1        62       157         -1242.0
         1       134       159             0.0
         1        46       161        -35514.0
         1       132       161        -12288.0
         1       121       161          -217.0
         1       186       162             0.0
         1        51       163             0.0
         1        50       164             0.0
         1        92       164        -28290.0
         1        92       164        -27458.0
         1       202       166        -14839.0
         1        27       167             0.0
         1        42       169             0.0
         1        66       169         -7653.0
         1        60       169       -102200.0
         1        60       169        -53056.0
         1       109       170          -510.0
         1        70       171             0.0
         1        40       172        -39736.0
         1       141       172         -1185.0
         1        88       173             0.0
         1        55       173             0.0
         1        55       173             0.0
         1        55       173             0.0
         1       195       175        -13241.0
         1       191       175             0.0
         1        19       176        -26632.0
         1        19       177             0.0
         1        59       177           -44.0
         1       188       178        -14132.0
         1        12       178             0.0
         1       176       179             0.0
         1       176       179           -17.0
         1       139       179             0.0
         1       140       179        -12492.0
         1        62       179        -55588.0
         1        53       180             0.0
         1       131       180         -1224.0
         1       116       180        -58594.0
         1       141       180        -18651.0
         1       141       180             0.0
         1       142       180             0.0
         1       142       180         -1352.0
         1        80       181             0.0
         1       116       181        -74383.0
         1        30       182             0.0
         1        30       182             0.0
         1        67       182             0.0
         1        37       182             0.0
         1        44       182         -8162.0
         1       139       183        -40509.0
         1       121       183             0.0
         1        76       183             0.0
         1       120       184             0.0
         1        75       184             0.0
         1        76       184             0.0
         1        76       184             0.0
         1        76       184             0.0
         1       126       185             0.0
         1       126       185           -65.0
         1        37       185           -67.0
         1        37       185             0.0
         1        65       186             0.0
         1       134       186         -1721.0
         1       134       186         -2072.0
         1       134       187          -655.0
         1       180       187             0.0
         1        45       188             0.0
         1        17       189             0.0
         1         4       189        -84773.0
         1         2       190        -39744.0
         1         5       190         -7379.0
         1        46       190          -151.0
         1       177       192         -2942.0
         1        26       193        -46830.0
         1       115       193             0.0
         1       106       193        -22101.0
         1       106       193        -43063.0
         1       102       193             0.0
         1        32       194        -68105.0
         1       178       194             0.0
         1        98       195           -81.0
         1        45       196             0.0
         1        29       197             0.0
         1        37       198        -51262.0
         1       143       198             0.0
         1       116       199          -478.0
         1        32       200             0.0
         1       174       200         -3638.0
         1       170       200             0.0
         1       170       200             0.0
         1       170       200        -33846.0
         1       170       200        -33846.0
         1        32       200        -12523.0
         1        94       201             0.0
         1        95       201             0.0
         1        95       201          -133.0
         1       152       201             0.0
         1       152       201             0.0
         1        99       203             0.0
         1        77       203             0.0
         1       173       203             0.0
         1       173       203             0.0
         1       173       203             0.0
         1       173       203             0.0
         1       136       204          -567.0
         1       124       204        -11335.0
         1        32       204        -35400.0
         1       173       204             0.0
         1       137       205             0.0
         1        33       205        -26739.0
         1        71       205        -27458.0
         1       150       205          -241.0
         1        69       206         -3880.0
         1        69       206         -1940.0
         1        72       206           -51.0
         1       114       206             0.0
         1       173       206             0.0
         1       173       206             0.0
         1       173       206             0.0
         1       104       207          -160.0
         1        94       209             0.0
         1       169       209             0.0
         1       153       209          -738.0
         1       103       209             0.0
         1       103       209             0.0
         1       103       209             0.0
         1       140       210        -21317.0
         1        98       210             0.0
         1       101       210             0.0
         1       102       210             0.0
         1       102       210             0.0
         1        96       211             0.0
         1        97       211             0.0
         1        81       211         -4763.0
         1        82       211         -3468.0
         1        99       211             0.0
         1        86       212             0.0
         1        86       212             0.0
         1       101       214             0.0
         1       127       214          -148.0
         1       127       214          -458.0
         1       104       214             0.0
         1       101       216             0.0
         1       101       216             0.0
         1        76       216        -13570.0
         1        76       216        -12129.0
         1        77       216             0.0
         1        78       216             0.0
         1        78       216             0.0
         1       195       217             0.0
         1       105       218             0.0
         1       105       218             0.0
         1       125       219             0.0
         1       152       219        -30960.0
         1       152       219          -364.0
         1       111       221         -5916.0
         1       111       221         -5916.0
         1       182       221             0.0
         1       166       222            -1.0
         1       169       222         -3791.0
         1       170       222             0.0
         1       170       222             0.0
         1       170       222             0.0
         1        76       222             0.0
         1        74       223             0.0
         1       171       223             0.0
         1       149       224             0.0
         1       115       224           -89.0
         1       185       224             0.0
         1       170       224             0.0
         1       165       225          -177.0
         1       165       225        -20872.0
         1       103       225        -10045.0
         1        79       225             0.0
         1        97       118             0.0
