# DRN package for MODFLOW-2005 generated by Flopy 3.3.5
     13245         0
     13245         0 # stress period 1
         1         1         1           980.0          5000.0
         1         1         2           968.0          5000.0
         1         1         3           978.0          5000.0
         1         1         4           981.0          5000.0
         1         1         5           972.0          5000.0
         1         1         6           968.0          5000.0
         1         1         7           965.0          5000.0
         1         1         8           961.0          5000.0
         1         1         9           958.0          5000.0
         1         1        10           953.0          5000.0
         1         1        11           950.0          5000.0
         1         1        12           955.0          5000.0
         1         1        13           963.0          5000.0
         1         1        14           967.0          5000.0
         1         1        15           961.0          5000.0
         1         1        16           968.0          5000.0
         1         1        17           972.0          5000.0
         1         1        18           970.0          5000.0
         1         1        19           966.0          5000.0
         1         1        20           956.0          5000.0
         1         1        21           950.0          5000.0
         1         1        22           946.0          5000.0
         1         1        23           933.0          5000.0
         1         1        24           929.0          5000.0
         1         1        25           930.0          5000.0
         1         1        58          1030.0          5000.0
         1         1        59          1041.0          5000.0
         1         1        60          1055.0          5000.0
         1         1        61          1089.0          5000.0
         1         1        94           964.0          5000.0
         1         1        95           962.0          5000.0
         1         1        96           962.0          5000.0
         1         1        97           964.0          5000.0
         1         1       164           818.0          5000.0
         1         1       165           826.0          5000.0
         1         2         1           976.0          5000.0
         1         2         2           967.0          5000.0
         1         2         3           977.0          5000.0
         1         2         4           972.0          5000.0
         1         2         5           969.0          5000.0
         1         2         6           969.0          5000.0
         1         2         7           968.0          5000.0
         1         2         8           966.0          5000.0
         1         2         9           961.0          5000.0
         1         2        10           955.0          5000.0
         1         2        11           948.0          5000.0
         1         2        12           951.0          5000.0
         1         2        13           959.0          5000.0
         1         2        14           965.0          5000.0
         1         2        15           957.0          5000.0
         1         2        16           965.0          5000.0
         1         2        17           970.0          5000.0
         1         2        18           961.0          5000.0
         1         2        19           957.0          5000.0
         1         2        20           948.0          5000.0
         1         2        21           942.0          5000.0
         1         2        22           938.0          5000.0
         1         2        23           927.0          5000.0
         1         2        24           926.0          5000.0
         1         2        25           929.0          5000.0
         1         2        56          1026.0          5000.0
         1         2        58          1038.0          5000.0
         1         2        59          1045.0          5000.0
         1         2        60          1059.0          5000.0
         1         2        61          1104.0          5000.0
         1         2        96           966.0          5000.0
         1         2        97           964.0          5000.0
         1         2        98           962.0          5000.0
         1         2        99           958.0          5000.0
         1         2       164           820.0          5000.0
         1         2       165           812.0          5000.0
         1         2       166           820.0          5000.0
         1         2       167           820.0          5000.0
         1         3         1           973.0          5000.0
         1         3         2           964.0          5000.0
         1         3         3           967.0          5000.0
         1         3         4           960.0          5000.0
         1         3         5           970.0          5000.0
         1         3         6           968.0          5000.0
         1         3         7           968.0          5000.0
         1         3         8           966.0          5000.0
         1         3         9           963.0          5000.0
         1         3        10           952.0          5000.0
         1         3        11           946.0          5000.0
         1         3        12           950.0          5000.0
         1         3        13           951.0          5000.0
         1         3        14           953.0          5000.0
         1         3        15           945.0          5000.0
         1         3        16           952.0          5000.0
         1         3        17           952.0          5000.0
         1         3        18           953.0          5000.0
         1         3        19           955.0          5000.0
         1         3        20           947.0          5000.0
         1         3        21           946.0          5000.0
         1         3        22           936.0          5000.0
         1         3        23           923.0          5000.0
         1         3        24           924.0          5000.0
         1         3        25           926.0          5000.0
         1         3        55           980.0          5000.0
         1         3        56          1008.0          5000.0
         1         3        57          1025.0          5000.0
         1         3        58          1045.0          5000.0
         1         3        59          1058.0          5000.0
         1         3        60          1067.0          5000.0
         1         3        61          1074.0          5000.0
         1         3        62          1098.0          5000.0
         1         3        63          1100.0          5000.0
         1         3       165           811.0          5000.0
         1         3       166           809.0          5000.0
         1         3       167           810.0          5000.0
         1         4         1           966.0          5000.0
         1         4         2           959.0          5000.0
         1         4         3           961.0          5000.0
         1         4         4           957.0          5000.0
         1         4         5           969.0          5000.0
         1         4         6           965.0          5000.0
         1         4         7           955.0          5000.0
         1         4         8           963.0          5000.0
         1         4         9           961.0          5000.0
         1         4        10           948.0          5000.0
         1         4        11           940.0          5000.0
         1         4        12           943.0          5000.0
         1         4        13           945.0          5000.0
         1         4        14           950.0          5000.0
         1         4        15           944.0          5000.0
         1         4        16           948.0          5000.0
         1         4        17           947.0          5000.0
         1         4        18           950.0          5000.0
         1         4        19           952.0          5000.0
         1         4        20           949.0          5000.0
         1         4        21           944.0          5000.0
         1         4        22           936.0          5000.0
         1         4        23           921.0          5000.0
         1         4        24           923.0          5000.0
         1         4        25           924.0          5000.0
         1         4        55           977.0          5000.0
         1         4        56           986.0          5000.0
         1         4        57          1019.0          5000.0
         1         4        58          1046.0          5000.0
         1         4        59          1064.0          5000.0
         1         4        60          1070.0          5000.0
         1         4        61          1070.0          5000.0
         1         4        62          1074.0          5000.0
         1         4        63          1081.0          5000.0
         1         4        64          1093.0          5000.0
         1         4        65          1103.0          5000.0
         1         4       165           808.0          5000.0
         1         4       166           807.0          5000.0
         1         4       167           808.0          5000.0
         1         4       168           811.0          5000.0
         1         4       220           902.0          5000.0
         1         5         1           974.0          5000.0
         1         5         2           962.0          5000.0
         1         5         3           959.0          5000.0
         1         5         4           954.0          5000.0
         1         5         5           947.0          5000.0
         1         5         6           950.0          5000.0
         1         5         7           953.0          5000.0
         1         5         8           965.0          5000.0
         1         5         9           963.0          5000.0
         1         5        10           955.0          5000.0
         1         5        11           946.0          5000.0
         1         5        12           937.0          5000.0
         1         5        13           935.0          5000.0
         1         5        14           941.0          5000.0
         1         5        15           940.0          5000.0
         1         5        16           948.0          5000.0
         1         5        17           949.0          5000.0
         1         5        18           948.0          5000.0
         1         5        19           948.0          5000.0
         1         5        20           946.0          5000.0
         1         5        21           946.0          5000.0
         1         5        22           939.0          5000.0
         1         5        23           924.0          5000.0
         1         5        24           921.0          5000.0
         1         5        25           921.0          5000.0
         1         5        55           991.0          5000.0
         1         5        56           996.0          5000.0
         1         5        57          1020.0          5000.0
         1         5        58          1039.0          5000.0
         1         5        59          1051.0          5000.0
         1         5        60          1037.0          5000.0
         1         5        61          1039.0          5000.0
         1         5        62          1065.0          5000.0
         1         5        63          1079.0          5000.0
         1         5        64          1096.0          5000.0
         1         5        65          1109.0          5000.0
         1         5       113           933.0          5000.0
         1         5       165           809.0          5000.0
         1         5       166           807.0          5000.0
         1         5       167           806.0          5000.0
         1         5       168           806.0          5000.0
         1         6         1           968.0          5000.0
         1         6         2           968.0          5000.0
         1         6         3           975.0          5000.0
         1         6         4           972.0          5000.0
         1         6         5           948.0          5000.0
         1         6         6           942.0          5000.0
         1         6         7           951.0          5000.0
         1         6         8           962.0          5000.0
         1         6         9           960.0          5000.0
         1         6        10           953.0          5000.0
         1         6        11           951.0          5000.0
         1         6        12           948.0          5000.0
         1         6        13           936.0          5000.0
         1         6        14           931.0          5000.0
         1         6        15           933.0          5000.0
         1         6        16           950.0          5000.0
         1         6        17           955.0          5000.0
         1         6        18           947.0          5000.0
         1         6        19           943.0          5000.0
         1         6        20           942.0          5000.0
         1         6        21           948.0          5000.0
         1         6        22           946.0          5000.0
         1         6        23           930.0          5000.0
         1         6        24           922.0          5000.0
         1         6        25           918.0          5000.0
         1         6        55           980.0          5000.0
         1         6        56           994.0          5000.0
         1         6        57          1017.0          5000.0
         1         6        58          1026.0          5000.0
         1         6        59          1024.0          5000.0
         1         6        60          1022.0          5000.0
         1         6        61          1033.0          5000.0
         1         6        62          1056.0          5000.0
         1         6        63          1078.0          5000.0
         1         6        64          1103.0          5000.0
         1         6        65          1116.0          5000.0
         1         6        66          1118.0          5000.0
         1         6       167           813.0          5000.0
         1         6       168           806.0          5000.0
         1         6       189           798.0          5000.0
         1         7         1           975.0          5000.0
         1         7         2           984.0          5000.0
         1         7         3           984.0          5000.0
         1         7         4           976.0          5000.0
         1         7         5           965.0          5000.0
         1         7         6           942.0          5000.0
         1         7         7           941.0          5000.0
         1         7         8           948.0          5000.0
         1         7         9           953.0          5000.0
         1         7        10           950.0          5000.0
         1         7        11           954.0          5000.0
         1         7        12           949.0          5000.0
         1         7        13           939.0          5000.0
         1         7        14           929.0          5000.0
         1         7        15           932.0          5000.0
         1         7        16           944.0          5000.0
         1         7        17           951.0          5000.0
         1         7        18           944.0          5000.0
         1         7        19           933.0          5000.0
         1         7        20           936.0          5000.0
         1         7        21           946.0          5000.0
         1         7        22           944.0          5000.0
         1         7        23           929.0          5000.0
         1         7        24           919.0          5000.0
         1         7        25           917.0          5000.0
         1         7        55           978.0          5000.0
         1         7        56           987.0          5000.0
         1         7        57           999.0          5000.0
         1         7        58          1005.0          5000.0
         1         7        59          1012.0          5000.0
         1         7        60          1022.0          5000.0
         1         7        61          1031.0          5000.0
         1         7        62          1056.0          5000.0
         1         7        63          1083.0          5000.0
         1         7        64          1094.0          5000.0
         1         7        65          1099.0          5000.0
         1         7        66          1119.0          5000.0
         1         7       119           867.0          5000.0
         1         7       169           805.0          5000.0
         1         7       188           797.0          5000.0
         1         7       189           801.0          5000.0
         1         8         1           994.0          5000.0
         1         8         2           998.0          5000.0
         1         8         3           984.0          5000.0
         1         8         4           975.0          5000.0
         1         8         5           970.0          5000.0
         1         8         6           948.0          5000.0
         1         8         7           939.0          5000.0
         1         8         8           936.0          5000.0
         1         8         9           939.0          5000.0
         1         8        10           940.0          5000.0
         1         8        11           951.0          5000.0
         1         8        12           952.0          5000.0
         1         8        13           942.0          5000.0
         1         8        14           932.0          5000.0
         1         8        15           925.0          5000.0
         1         8        16           936.0          5000.0
         1         8        17           934.0          5000.0
         1         8        18           929.0          5000.0
         1         8        19           931.0          5000.0
         1         8        20           938.0          5000.0
         1         8        21           944.0          5000.0
         1         8        22           945.0          5000.0
         1         8        23           929.0          5000.0
         1         8        24           918.0          5000.0
         1         8        25           915.0          5000.0
         1         8        56           982.0          5000.0
         1         8        57           994.0          5000.0
         1         8        58           997.0          5000.0
         1         8        59          1007.0          5000.0
         1         8        60          1017.0          5000.0
         1         8        61          1025.0          5000.0
         1         8        62          1053.0          5000.0
         1         8        63          1068.0          5000.0
         1         8        64          1074.0          5000.0
         1         8        65          1083.0          5000.0
         1         8        66          1101.0          5000.0
         1         8        67          1119.0          5000.0
         1         8       113           906.0          5000.0
         1         8       114           893.0          5000.0
         1         8       117           878.0          5000.0
         1         8       118           873.0          5000.0
         1         8       119           869.0          5000.0
         1         8       188           807.0          5000.0
         1         9         1          1003.0          5000.0
         1         9         2           993.0          5000.0
         1         9         3           985.0          5000.0
         1         9         4           986.0          5000.0
         1         9         5           983.0          5000.0
         1         9         6           950.0          5000.0
         1         9         7           946.0          5000.0
         1         9         8           960.0          5000.0
         1         9         9           946.0          5000.0
         1         9        10           932.0          5000.0
         1         9        11           932.0          5000.0
         1         9        12           945.0          5000.0
         1         9        13           947.0          5000.0
         1         9        14           944.0          5000.0
         1         9        15           937.0          5000.0
         1         9        16           924.0          5000.0
         1         9        17           930.0          5000.0
         1         9        18           926.0          5000.0
         1         9        19           937.0          5000.0
         1         9        20           942.0          5000.0
         1         9        21           939.0          5000.0
         1         9        22           942.0          5000.0
         1         9        23           927.0          5000.0
         1         9        25           915.0          5000.0
         1         9        56           992.0          5000.0
         1         9        58          1006.0          5000.0
         1         9        59          1010.0          5000.0
         1         9        60          1016.0          5000.0
         1         9        63          1097.0          5000.0
         1         9        64          1099.0          5000.0
         1         9        65          1103.0          5000.0
         1         9        66          1135.0          5000.0
         1         9        67          1134.0          5000.0
         1         9       112           903.0          5000.0
         1         9       113           895.0          5000.0
         1         9       114           888.0          5000.0
         1         9       115           886.0          5000.0
         1         9       189           823.0          5000.0
         1         9       195           871.0          5000.0
         1        10         1          1000.0          5000.0
         1        10         2           991.0          5000.0
         1        10         3           980.0          5000.0
         1        10         4           975.0          5000.0
         1        10         5           970.0          5000.0
         1        10         6           978.0          5000.0
         1        10         7           972.0          5000.0
         1        10         8           968.0          5000.0
         1        10         9           957.0          5000.0
         1        10        10           949.0          5000.0
         1        10        11           924.0          5000.0
         1        10        12           939.0          5000.0
         1        10        13           947.0          5000.0
         1        10        14           944.0          5000.0
         1        10        15           937.0          5000.0
         1        10        16           920.0          5000.0
         1        10        17           921.0          5000.0
         1        10        18           921.0          5000.0
         1        10        19           927.0          5000.0
         1        10        20           930.0          5000.0
         1        10        21           926.0          5000.0
         1        10        22           934.0          5000.0
         1        10        23           922.0          5000.0
         1        10        25           914.0          5000.0
         1        10        51           973.0          5000.0
         1        10        55          1007.0          5000.0
         1        10        56          1011.0          5000.0
         1        10        57          1017.0          5000.0
         1        10        58          1024.0          5000.0
         1        10        59          1029.0          5000.0
         1        10        60          1037.0          5000.0
         1        10        61          1041.0          5000.0
         1        10        62          1050.0          5000.0
         1        10        63          1088.0          5000.0
         1        10        64          1113.0          5000.0
         1        10        65          1131.0          5000.0
         1        10        66          1140.0          5000.0
         1        10       108           966.0          5000.0
         1        10       109           942.0          5000.0
         1        10       110           924.0          5000.0
         1        10       111           908.0          5000.0
         1        10       112           893.0          5000.0
         1        10       113           887.0          5000.0
         1        10       114           884.0          5000.0
         1        10       115           883.0          5000.0
         1        10       189           830.0          5000.0
         1        10       190           852.0          5000.0
         1        11         1          1001.0          5000.0
         1        11         2           992.0          5000.0
         1        11         3           990.0          5000.0
         1        11         4           990.0          5000.0
         1        11         5           980.0          5000.0
         1        11         6           985.0          5000.0
         1        11         7           971.0          5000.0
         1        11         8           961.0          5000.0
         1        11         9           960.0          5000.0
         1        11        10           948.0          5000.0
         1        11        11           930.0          5000.0
         1        11        12           925.0          5000.0
         1        11        13           939.0          5000.0
         1        11        14           940.0          5000.0
         1        11        15           938.0          5000.0
         1        11        16           935.0          5000.0
         1        11        17           918.0          5000.0
         1        11        18           917.0          5000.0
         1        11        19           918.0          5000.0
         1        11        21           919.0          5000.0
         1        11        22           930.0          5000.0
         1        11        49           962.0          5000.0
         1        11        50           971.0          5000.0
         1        11        51           982.0          5000.0
         1        11        52          1005.0          5000.0
         1        11        53           994.0          5000.0
         1        11        54          1012.0          5000.0
         1        11        55          1019.0          5000.0
         1        11        56          1038.0          5000.0
         1        11        57          1048.0          5000.0
         1        11        58          1055.0          5000.0
         1        11        59          1043.0          5000.0
         1        11        60          1055.0          5000.0
         1        11        61          1053.0          5000.0
         1        11        62          1061.0          5000.0
         1        11        63          1081.0          5000.0
         1        11        64          1104.0          5000.0
         1        11        65          1118.0          5000.0
         1        11        66          1129.0          5000.0
         1        11        74          1101.0          5000.0
         1        11        75          1095.0          5000.0
         1        11       190           831.0          5000.0
         1        11       191           842.0          5000.0
         1        12         1          1017.0          5000.0
         1        12         2          1008.0          5000.0
         1        12         3          1004.0          5000.0
         1        12         4          1000.0          5000.0
         1        12         5           991.0          5000.0
         1        12         6           993.0          5000.0
         1        12         7           976.0          5000.0
         1        12         8           967.0          5000.0
         1        12         9           949.0          5000.0
         1        12        10           939.0          5000.0
         1        12        11           932.0          5000.0
         1        12        12           919.0          5000.0
         1        12        14           937.0          5000.0
         1        12        15           939.0          5000.0
         1        12        16           933.0          5000.0
         1        12        17           927.0          5000.0
         1        12        18           925.0          5000.0
         1        12        19           916.0          5000.0
         1        12        20           913.0          5000.0
         1        12        21           912.0          5000.0
         1        12        22           915.0          5000.0
         1        12        23           912.0          5000.0
         1        12        24           910.0          5000.0
         1        12        48           952.0          5000.0
         1        12        49           966.0          5000.0
         1        12        50           978.0          5000.0
         1        12        51           989.0          5000.0
         1        12        52          1006.0          5000.0
         1        12        53          1026.0          5000.0