# WEL package for MODFLOW-2005 generated by Flopy 3.3.5
       108         0 
       108         0 # stress period 1
         1        89        35         -8816.0
         1        95        35         -1924.0
         1        95        36         -5771.0
         1        45        48        -31722.0
         1        45        48        -16284.0
         1       146        51        -49609.0
         1       146        54        -28069.0
         1       144        55        -22495.0
         1       182        76          -791.0
         1       147        76       -112242.0
         1       147        76       -112242.0
         1       147        84        -43486.0
         1       147        88        -53236.0
         1       147        88         -1692.0
         1       145        88          -924.0
         1       145        88         -1420.0
         1       103       111        -59204.0
         1       103       112        -59204.0
         1       101       112        -59204.0
         1        99       118       -109951.0
         1        99       119       -109951.0
         1        96       119       -109951.0
         1        17       120         -8851.0
         1       113       131        -11324.0
         1       124       132          -806.0
         1       124       132         -2120.0
         1       172       134        -23167.0
         1       110       135         -1164.0
         1       179       136        -91810.0
         1       186       139         -1397.0
         1       150       139         -9878.0
         1        75       140         -2560.0
         1        75       141         -2259.0
         1        75       141          -583.0
         1       151       141        -15179.0
         1       187       143        -59556.0
         1        43       145         -1377.0
         1        73       146        -40868.0
         1       203       147        -74658.0
         1        51       148         -1046.0
         1        72       148         -1963.0
         1       124       149          -616.0
         1       182       150        -41402.0
         1        63       150         -1102.0
         1        63       150          -650.0
         1       197       151        -55309.0
         1       162       151        -75089.0
         1       188       152         -2793.0
         1        94       154         -1925.0
         1       143       157         -1242.0
         1       159       161        -35514.0
         1        73       161        -12288.0
         1       113       164        -28290.0
         1       113       164        -27458.0
         1         3       166        -14839.0
         1       139       169         -7653.0
         1       145       169       -102200.0
         1       145       169        -53056.0
         1        96       170          -510.0
         1       165       172        -39736.0
         1        64       172         -1185.0
         1        10       175        -13241.0
         1       186       176        -26632.0
         1        17       178        -14132.0
         1        65       179        -12492.0
         1       143       179        -55588.0
         1        74       180         -1224.0
         1        89       180        -58594.0
         1        64       180        -18651.0
         1        63       180         -1352.0
         1        89       181        -74383.0
         1       161       182         -8162.0
         1        66       183        -40509.0
         1        71       186         -1721.0
         1        71       186         -2072.0
         1        71       187          -655.0
         1       201       189        -84773.0
         1       203       190        -39744.0
         1       200       190         -7379.0
         1        28       192         -2942.0
         1       179       193        -46830.0
         1        99       193        -22101.0
         1        99       193        -43063.0
         1       173       194        -68105.0
         1       168       198        -51262.0
         1        31       200         -3638.0
         1        35       200        -33846.0
         1        35       200        -33846.0
         1       173       200        -12523.0
         1        69       204          -567.0
         1        81       204        -11335.0
         1       173       204        -35400.0
         1       172       205        -26739.0
         1       134       205        -27458.0
         1       136       206         -3880.0
         1       136       206         -1940.0
         1        52       209          -738.0
         1        65       210        -21317.0
         1       124       211         -4763.0
         1       123       211         -3468.0
         1       129       216        -13570.0
         1       129       216        -12129.0
         1        53       219        -30960.0
         1        94       221         -5916.0
         1        94       221         -5916.0
         1        36       222         -3791.0
         1        40       225        -20872.0
         1       102       225        -10045.0
       108         0 # stress period 2
         1        89        35         -8816.0
         1        95        35         -1924.0
         1        95        36         -5771.0
         1        45        48        -31722.0
         1        45        48        -16284.0
         1       146        51        -49609.0
         1       146        54        -28069.0
         1       144        55        -22495.0
         1       182        76          -791.0
         1       147        76       -112242.0
         1       147        76       -112242.0
         1       147        84        -43486.0
         1       147        88        -53236.0
         1       147        88         -1692.0
         1       145        88          -924.0
         1       145        88         -1420.0
         1       103       111        -59204.0
         1       103       112        -59204.0
         1       101       112        -59204.0
         1        99       118       -109951.0
         1        99       119       -109951.0
         1        96       119       -109951.0
         1        17       120         -8851.0
         1       113       131        -11324.0
         1       124       132          -806.0
         1       124       132         -2120.0
         1       172       134        -23167.0
         1       110       135         -1164.0
         1       179       136        -91810.0
         1       186       139         -1397.0
         1       150       139         -9878.0
         1        75       140         -2560.0
         1        75       141         -2259.0
         1        75       141          -583.0
         1       151       141        -15179.0
         1       187       143        -59556.0
         1        43       145         -1377.0
         1        73       146        -40868.0
         1       203       147        -74658.0
         1        51       148         -1046.0
         1        72       148         -1963.0
         1       124       149          -616.0
         1       182       150        -41402.0
         1        63       150         -1102.0
         1        63       150          -650.0
         1       197       151        -55309.0
         1       162       151        -75089.0
         1       188       152         -2793.0
         1        94       154         -1925.0
         1       143       157         -1242.0
         1       159       161        -35514.0
         1        73       161        -12288.0
         1       113       164        -28290.0
         1       113       164        -27458.0
         1         3       166        -14839.0
         1       139       169         -7653.0
         1       145       169       -102200.0
         1       145       169        -53056.0
         1        96       170          -510.0
         1       165       172        -39736.0
         1        64       172         -1185.0
         1        10       175        -13241.0
         1       186       176        -26632.0
         1        17       178        -14132.0
         1        65       179        -12492.0
         1       143       179        -55588.0
         1        74       180         -1224.0
         1        89       180        -58594.0
         1        64       180        -18651.0
         1        63       180         -1352.0
         1        89       181        -74383.0
         1       161       182         -8162.0
         1        66       183        -40509.0
         1        71       186         -1721.0
         1        71       186         -2072.0
         1        71       187          -655.0
         1       201       189        -84773.0
         1       203       190        -39744.0
         1       200       190         -7379.0
         1        28       192         -2942.0
         1       179       193        -46830.0
         1        99       193        -22101.0
         1        99       193        -43063.0
         1       173       194        -68105.0
         1       168       198        -51262.0
         1        31       200         -3638.0
         1        35       200        -33846.0
         1        35       200        -33846.0
         1       173       200        -12523.0
         1        69       204          -567.0
         1        81       204        -11335.0
         1       173       204        -35400.0
         1       172       205        -26739.0
         1       134       205        -27458.0
         1       136       206         -3880.0
         1       136       206         -1940.0
         1        52       209          -738.0
         1        65       210        -21317.0
         1       124       211         -4763.0
         1       123       211         -3468.0
         1       129       216        -13570.0
         1       129       216        -12129.0
         1        53       219        -30960.0
         1        94       221         -5916.0
         1        94       221         -5916.0
         1        36       222         -3791.0
         1        40       225        -20872.0
         1       102       225        -10045.0
       108         0 # stress period 3
         1        89        35         -8816.0
         1        95        35         -1924.0
         1        95        36         -5771.0
         1        45        48        -31722.0
         1        45        48        -16284.0
         1       146        51        -49609.0
         1       146        54        -28069.0
         1       144        55        -22495.0
         1       182        76          -791.0
         1       147        76       -112242.0
         1       147        76       -112242.0
         1       147        84        -43486.0
         1       147        88        -53236.0
         1       147        88         -1692.0
         1       145        88          -924.0
         1       145        88         -1420.0
         1       103       111        -59204.0
         1       103       112        -59204.0
         1       101       112        -59204.0
         1        99       118       -109951.0
         1        99       119       -109951.0
         1        96       119       -109951.0
         1        17       120         -8851.0
         1       113       131        -11324.0
         1       124       132          -806.0
         1       124       132         -2120.0
         1       172       134        -23167.0
         1       110       135         -1164.0
         1       179       136        -91810.0
         1       186       139         -1397.0
         1       150       139         -9878.0
         1        75       140         -2560.0
         1        75       141         -2259.0
         1        75       141          -583.0
         1       151       141        -15179.0
         1       187       143        -59556.0
         1        43       145         -1377.0
         1        73       146        -40868.0
         1       203       147        -74658.0
         1        51       148         -1046.0
         1        72       148         -1963.0
         1       124       149          -616.0
         1       182       150        -41402.0
         1        63       150         -1102.0
         1        63       150          -650.0
         1       197       151        -55309.0
         1       162       151        -75089.0
         1       188       152         -2793.0
         1        94       154         -1925.0
         1       143       157         -1242.0
         1       159       161        -35514.0
         1        73       161        -12288.0
         1       113       164        -28290.0
         1       113       164        -27458.0
         1         3       166        -14839.0
         1       139       169         -7653.0
         1       145       169       -102200.0
         1       145       169        -53056.0
         1        96       170          -510.0
         1       165       172        -39736.0
         1        64       172         -1185.0
         1        10       175        -13241.0
         1       186       176        -26632.0
         1        17       178        -14132.0
         1        65       179        -12492.0
         1       143       179        -55588.0
         1        74       180         -1224.0
         1        89       180        -58594.0
         1        64       180        -18651.0
         1        63       180         -1352.0
         1        89       181        -74383.0
         1       161       182         -8162.0
         1        66       183        -40509.0
         1        71       186         -1721.0
         1        71       186         -2072.0
         1        71       187          -655.0
         1       201       189        -84773.0
         1       203       190        -39744.0
         1       200       190         -7379.0
         1        28       192         -2942.0
         1       179       193        -46830.0
         1        99       193        -22101.0
         1        99       193        -43063.0
         1       173       194        -68105.0
         1       168       198        -51262.0
         1        31       200         -3638.0
         1        35       200        -33846.0
         1        35       200        -33846.0
         1       173       200        -12523.0
         1        69       204          -567.0
         1        81       204        -11335.0
         1       173       204        -35400.0
         1       172       205        -26739.0
         1       134       205        -27458.0
         1       136       206         -3880.0
         1       136       206         -1940.0
         1        52       209          -738.0
         1        65       210        -21317.0
         1       124       211         -4763.0
         1       123       211         -3468.0
         1       129       216        -13570.0
         1       129       216        -12129.0
         1        53       219        -30960.0
         1        94       221         -5916.0
         1        94       221         -5916.0
         1        36       222         -3791.0
         1        40       225        -20872.0
         1       102       225        -10045.0
       108         0 # stress period 4
         1        89        35         -8816.0
         1        95        35         -1924.0
         1        95        36         -5771.0
         1        45        48        -31722.0
         1        45        48        -16284.0
         1       146        51        -49609.0
         1       146        54        -28069.0
         1       144        55        -22495.0
         1       182        76          -791.0
         1       147        76       -112242.0
         1       147        76       -112242.0
         1       147        84        -43486.0
         1       147        88        -53236.0
         1       147        88         -1692.0
         1       145        88          -924.0
         1       145        88         -1420.0
         1       103       111        -59204.0
         1       103       112        -59204.0
         1       101       112        -59204.0
         1        99       118       -109951.0
         1        99       119       -109951.0
         1        96       119       -109951.0
         1        17       120         -8851.0
         1       113       131        -11324.0
         1       124       132          -806.0
         1       124       132         -2120.0
         1       172       134        -23167.0
         1       110       135         -1164.0
         1       179       136        -91810.0
         1       186       139         -1397.0
         1       150       139         -9878.0
         1        75       140         -2560.0
         1        75       141         -2259.0
         1        75       141          -583.0
         1       151       141        -15179.0
         1       187       143        -59556.0
         1        43       145         -1377.0
         1        73       146        -40868.0
         1       203       147        -74658.0
         1        51       148         -1046.0
         1        72       148         -1963.0
         1       124       149          -616.0
         1       182       150        -41402.0
         1        63       150         -1102.0
         1        63       150          -650.0
         1       197       151        -55309.0
         1       162       151        -75089.0
         1       188       152         -2793.0
         1        94       154         -1925.0
         1       143       157         -1242.0
         1       159       161        -35514.0
         1        73       161        -12288.0
         1       113       164        -28290.0
         1       113       164        -27458.0
         1         3       166        -14839.0
         1       139       169         -7653.0
         1       145       169       -102200.0
         1       145       169        -53056.0
         1        96       170          -510.0
         1       165       172        -39736.0
         1        64       172         -1185.0
         1        10       175        -13241.0
         1       186       176        -26632.0
         1        17       178        -14132.0
         1        65       179        -12492.0
         1       143       179        -55588.0
         1        74       180         -1224.0
         1        89       180        -58594.0
         1        64       180        -18651.0
         1        63       180         -1352.0
         1        89       181        -74383.0
         1       161       182         -8162.0
         1        66       183        -40509.0
         1        71       186         -1721.0
         1        71       186         -2072.0
         1        71       187          -655.0
         1       201       189        -84773.0
         1       203       190        -39744.0
         1       200       190         -7379.0
         1        28       192         -2942.0
         1       179       193        -46830.0
         1        99       193        -22101.0
         1        99       193        -43063.0
         1       173       194        -68105.0
         1       168       198        -51262.0
         1        31       200         -3638.0
         1        35       200        -33846.0
         1        35       200        -33846.0
         1       173       200        -12523.0
         1        69       204          -567.0
         1        81       204        -11335.0
         1       173       204        -35400.0
         1       172       205        -26739.0
         1       134       205        -27458.0
         1       136       206         -3880.0
         1       136       206         -1940.0
         1        52       209          -738.0
         1        65       210        -21317.0
         1       124       211         -4763.0
         1       123       211         -3468.0
         1       129       216        -13570.0
         1       129       216        -12129.0
         1        53       219        -30960.0
         1        94       221         -5916.0
         1        94       221         -5916.0
         1        36       222         -3791.0
         1        40       225        -20872.0
         1       102       225        -10045.0
       108         0 # stress period 5
         1        89        35         -8816.0
         1        95        35         -1924.0
         1        95        36         -5771.0
         1        45        48        -31722.0
         1        45        48        -16284.0
         1       146        51        -49609.0
         1       146        54        -28069.0
         1       144        55        -22495.0
         1       182        76          -791.0
         1       147        76       -112242.0
         1       147        76       -112242.0
         1       147        84        -43486.0
         1       147        88        -53236.0
         1       147        88         -1692.0
         1       145        88          -924.0
         1       145        88         -1420.0
         1       103       111        -59204.0
         1       103       112        -59204.0
         1       101       112        -59204.0
         1        99       118       -109951.0
         1        99       119       -109951.0
         1        96       119       -109951.0
         1        17       120         -8851.0
         1       113       131        -11324.0
         1       124       132          -806.0
         1       124       132         -2120.0
         1       172       134        -23167.0
         1       110       135         -1164.0
         1       179       136        -91810.0
         1       186       139         -1397.0
         1       150       139         -9878.0
         1        75       140         -2560.0
         1        75       141         -2259.0
         1        75       141          -583.0
         1       151       141        -15179.0
         1       187       143        -59556.0
         1        43       145         -1377.0
         1        73       146        -40868.0
         1       203       147        -74658.0
         1        51       148         -1046.0
         1        72       148         -1963.0
         1       124       149          -616.0
         1       182       150        -41402.0
         1        63       150         -1102.0
         1        63       150          -650.0
         1       197       151        -55309.0
         1       162       151        -75089.0
         1       188       152         -2793.0
         1        94       154         -1925.0
         1       143       157         -1242.0
         1       159       161        -35514.0
         1        73       161        -12288.0
         1       113       164        -28290.0
         1       113       164        -27458.0
         1         3       166        -14839.0
         1       139       169         -7653.0
         1       145       169       -102200.0
         1       145       169        -53056.0
         1        96       170          -510.0
         1       165       172        -39736.0
         1        64       172         -1185.0
         1        10       175        -13241.0
         1       186       176        -26632.0
         1        17       178        -14132.0
         1        65       179        -12492.0
         1       143       179        -55588.0
         1        74       180         -1224.0
         1        89       180        -58594.0
         1        64       180        -18651.0
         1        63       180         -1352.0
         1        89       181        -74383.0
         1       161       182         -8162.0
         1        66       183        -40509.0
         1        71       186         -1721.0
         1        71       186         -2072.0
         1        71       187          -655.0
         1       201       189        -84773.0
         1       203       190        -39744.0
         1       200       190         -7379.0
         1        28       192         -2942.0
         1       179       193        -46830.0
         1        99       193        -22101.0
         1        99       193        -43063.0
         1       173       194        -68105.0
         1       168       198        -51262.0
         1        31       200         -3638.0
         1        35       200        -33846.0
         1        35       200        -33846.0
         1       173       200        -12523.0
         1        69       204          -567.0
         1        81       204        -11335.0
         1       173       204        -35400.0
         1       172       205        -26739.0
         1       134       205        -27458.0
         1       136       206         -3880.0
         1       136       206         -1940.0
         1        52       209          -738.0
         1        65       210        -21317.0
         1       124       211         -4763.0
         1       123       211         -3468.0
         1       129       216        -13570.0
         1       129       216        -12129.0
         1        53       219        -30960.0
         1        94       221         -5916.0
         1        94       221         -5916.0
         1        36       222         -3791.0
         1        40       225        -20872.0
         1       102       225        -10045.0
       108         0 # stress period 6
         1        89        35         -8816.0
         1        95        35         -1924.0
         1        95        36         -5771.0
         1        45        48        -31722.0
         1        45        48        -16284.0
         1       146        51        -49609.0
         1       146        54        -28069.0
         1       144        55        -22495.0
         1       182        76          -791.0
         1       147        76       -112242.0
         1       147        76       -112242.0
         1       147        84        -43486.0
         1       147        88        -53236.0
         1       147        88         -1692.0
         1       145        88          -924.0
         1       145        88         -1420.0
         1       103       111        -59204.0
         1       103       112        -59204.0
         1       101       112        -59204.0
         1        99       118       -109951.0
         1        99       119       -109951.0
         1        96       119       -109951.0
         1        17       120         -8851.0
         1       113       131        -11324.0
         1       124       132          -806.0
         1       124       132         -2120.0
         1       172       134        -23167.0
         1       110       135         -1164.0
         1       179       136        -91810.0
         1       186       139         -1397.0
         1       150       139         -9878.0
         1        75       140         -2560.0
         1        75       141         -2259.0
         1        75       141          -583.0
         1       151       141        -15179.0
         1       187       143        -59556.0
         1        43       145         -1377.0
         1        73       146        -40868.0
         1       203       147        -74658.0
         1        51       148         -1046.0
         1        72       148         -1963.0
         1       124       149          -616.0
         1       182       150        -41402.0
         1        63       150         -1102.0
         1        63       150          -650.0
         1       197       151        -55309.0
         1       162       151        -75089.0
         1       188       152         -2793.0
         1        94       154         -1925.0
         1       143       157         -1242.0
         1       159       161        -35514.0
         1        73       161        -12288.0
         1       113       164        -28290.0
         1       113       164        -27458.0
         1         3       166        -14839.0
         1       139       169         -7653.0
         1       145       169       -102200.0
         1       145       169        -53056.0
         1        96       170          -510.0
         1       165       172        -39736.0
         1        64       172         -1185.0
         1        10       175        -13241.0
         1       186       176        -26632.0
         1        17       178        -14132.0
         1        65       179        -12492.0
         1       143       179        -55588.0
         1        74       180         -1224.0
         1        89       180        -58594.0
         1        64       180        -18651.0
         1        63       180         -1352.0
         1        89       181        -74383.0
         1       161       182         -8162.0
         1        66       183        -40509.0
         1        71       186         -1721.0
         1        71       186         -2072.0
         1        71       187          -655.0
         1       201       189        -84773.0
         1       203       190        -39744.0
         1       200       190         -7379.0
         1        28       192         -2942.0
         1       179       193        -46830.0
         1        99       193        -22101.0
         1        99       193        -43063.0
         1       173       194        -68105.0
         1       168       198        -51262.0
         1        31       200         -3638.0
         1        35       200        -33846.0
         1        35       200        -33846.0
         1       173       200        -12523.0
         1        69       204          -567.0
         1        81       204        -11335.0