# LPF package for MODFLOW-2005 generated by Flopy 3.3.5
         1    -1E+30         0  
         0
         0
   1.000000E+00
         0
         0
INTERNAL               1 (225E15.6) -1 #hk layer 1                    
   1.350700E+00   1.350700E+00   1.350700E+00   1.350700E+00   1.350700E+00   1.350700E+00   1.350700E+00   1.350700E+00   1.350700E+00   1.350700E+00   1.350700E+00   1.350700E+00   1.350700E+00   1.350700E+00   1.350700E+00   1.350700E+00   1.350700E+00   1.350700E+00   1.350700E+00   1.350700E+00   1.350700E+00   1.350700E+00   1.350700E+00   1.350700E+00   1.350700E+00   1.350700E+00   1.350700E+00   1.350700E+00   1.350700E+00   1.350700E+00   1.350700E+00   1.350700E+00   1.350700E+00   1.350700E+00   1.350700E+00   1.350700E+00   1.350700E+00   2.674500E-02   2.674500E-02   2.674500E-02   2.674500E-02   2.674500E-02   2.674500E-02   2.674500E-02   2.674500E-02   2.674500E-02   2.674500E-02   2.674500E-02   2.674500E-02   2.674500E-02   2.674500E-02   2.674500E-02   2.674500E-02   2.674500E-02   2.674500E-02   2.674500E-02   2.674500E-02   2.674500E-02   2.607690E+00   2.607690E+00   2.607690E+00   2.607690E+00   2.607690E+00   2.607690E+00   2.607690E+00   2.607690E+00   2.607690E+00   2.607690E+00   2.607690E+00   2.607690E+00   2.607690E+00   2.607690E+00   2.607690E+00   2.607690E+00   2.607690E+00   2.607690E+00   2.607690E+00   2.607690E+00   2.674500E-02   2.674500E-02   2.674500E-02   2.674500E-02   2.674500E-02   2.674500E-02   2.674500E-02   2.674500E-02   2.674500E-02   2.674500E-02   2.674500E-02   2.674500E-02   2.674500E-02   2.674500E-02   2.674500E-02   2.674500E-02   2.674500E-02   2.674500E-02   2.674500E-02   2.674500E-02   2.674500E-02   2.674500E-02   2.674500E-02   2.674500E-02   2.674500E-02   2.674500E-02   2.674500E-02   2.674500E-02   2.674500E-02   2.607690E+00   2.607690E+00   2.607690E+00   2.607690E+00   2.607690E+00   2.607690E+00   2.607690E+00   2.607690E+00   2.607690E+00   2.607690E+00   2.607690E+00   2.607690E+00   2.607690E+00   2.607690E+00   2.607690E+00   2.607690E+00   2.607690E+00   2.607690E+00   2.607690E+00   2.607690E+00   2.607690E+00   2.607690E+00   2.607690E+00   2.607690E+00   2.607690E+00   2.607690E+00   2.607690E+00   2.607690E+00   2.607690E+00   2.607690E+00   2.607690E+00   2.607690E+00   2.607690E+00   2.607690E+00   2.607690E+00   2.607690E+00   2.607690E+00   2.607690E+00   2.607690E+00   2.607690E+00   2.607690E+00   2.607690E+00   2.607690E+00   2.607690E+00   2.607690E+00   2.607690E+00   2.607690E+00   2.607690E+00   2.607690E+00   2.607690E+00   2.607690E+00   2.607690E+00   2.607690E+00   2.607690E+00   2.607690E+00   2.607690E+00   2.607690E+00   2.607690E+00   2.607690E+00   2.607690E+00   2.607690E+00   2.607690E+00   2.607690E+00   2.607690E+00   2.607690E+00   2.607690E+00   2.607690E+00   2.607690E+00   2.607690E+00   2.607690E+00   2.607690E+00   2.607690E+00   2.607690E+00   2.607690E+00   2.607690E+00   2.607690E+00   2.607690E+00   2.607690E+00   2.607690E+00   2.607690E+00   2.607690E+00   2.607690E+00   2.607690E+00   2.607690E+00   2.607690E+00   2.607690E+00   2.607690E+00   2.607690E+00   2.607690E+00   2.607690E+00   2.607690E+00   2.607690E+00   2.607690E+00   2.607690E+00   2.607690E+00   2.607690E+00   2.607690E+00   2.607690E+00   2.607690E+00   2.607690E+00   2.607690E+00   2.607690E+00   2.607690E+00   2.607690E+00   2.607690E+00   2.607690E+00   2.607690E+00   2.607690E+00   2.607690E+00   2.607690E+00   2.607690E+00   2.607690E+00   2.607690E+00   2.607690E+00   2.607690E+00   2.607690E+00   2.607690E+00   2.607690E+00
   1.350700E+00   1.350700E+00   1.350700E+00   1.350700E+00   1.350700E+00   1.350700E+00   1.350700E+00   1.350700E+00   1.350700E+00   1.350700E+00   1.350700E+00   1.350700E+00   1.350700E+00   1.350700E+00   1.350700E+00   1.350700E+00   1.350700E+00   1.350700E+00   1.350700E+00   1.350700E+00   1.350700E+00   1.350700E+00   1.350700E+00   1.350700E+00   1.350700E+00   1.350700E+00   1.350700E+00   1.350700E+00   1.350700E+00   1.350700E+00   1.350700E+00   1.350700E+00   1.350700E+00   1.350700E+00   1.350700E+00   1.350700E+00   1.350700E+00   2.674500E-02   2.674500E-02   2.674500E-02   2.674500E-02   2.674500E-02   2.674500E-02   2.674500E-02   2.674500E-02   2.674500E-02   2.674500E-02   2.674500E-02   2.674500E-02   2.674500E-02   2.674500E-02   2.674500E-02   2.674500E-02   2.674500E-02   2.674500E-02   2.674500E-02   2.674500E-02   2.674500E-02   2.607690E+00   2.607690E+00   2.607690E+00   2.607690E+00   2.607690E+00   2.607690E+00   2.607690E+00   2.607690E+00   2.607690E+00   2.607690E+00   2.607690E+00   2.607690E+00   2.607690E+00   2.607690E+00   2.607690E+00   2.607690E+00   2.607690E+00   2.607690E+00   2.607690E+00   2.607690E+00   2.674500E-02   2.674500E-02   2.674500E-02   2.674500E-02   2.674500E-02   2.674500E-02   2.674500E-02   2.607690E+00   2.674500E-02   2.674500E-02   2.674500E-02   2.674500E-02   2.674500E-02   2.674500E-02   2.674500E-02   2.607690E+00   2.607690E+00   2.607690E+00   2.607690E+00   2.607690E+00   2.674500E-02   2.674500E-02   2.674500E-02   2.674500E-02   2.674500E-02   2.674500E-02   2.674500E-02   2.674500E-02   2.674500E-02   2.607690E+00   2.607690E+00   2.607690E+00   2.607690E+00   2.607690E+00   2.607690E+00   2.607690E+00   2.607690E+00   2.607690E+00   2.607690E+00   2.607690E+00   2.607690E+00   2.607690E+00   2.607690E+00   2.607690E+00   2.607690E+00   2.607690E+00   2.607690E+00   2.607690E+00   2.607690E+00   2.607690E+00   2.607690E+00   2.607690E+00   2.607690E+00   2.607690E+00   2.607690E+00   2.607690E+00   2.607690E+00   2.607690E+00   2.607690E+00   2.607690E+00   2.607690E+00   2.607690E+00   2.607690E+00   2.607690E+00   2.607690E+00   2.607690E+00   2.607690E+00   2.607690E+00   2.607690E+00   2.607690E+00   2.607690E+00   2.607690E+00   2.607690E+00   2.607690E+00   2.607690E+00   2.607690E+00   2.607690E+00   2.607690E+00   2.607690E+00   2.607690E+00   2.607690E+00   2.607690E+00   2.607690E+00   2.607690E+00   2.607690E+00   2.607690E+00   2.607690E+00   2.607690E+00   2.607690E+00   2.607690E+00   2.607690E+00   2.607690E+00   2.607690E+00   2.607690E+00   2.607690E+00   2.607690E+00   2.607690E+00   2.607690E+00   2.607690E+00   2.607690E+00   2.607690E+00   2.607690E+00   2.607690E+00   2.607690E+00   2.607690E+00   2.607690E+00   2.607690E+00   2.607690E+00   2.607690E+00   2.607690E+00   2.607690E+00   2.607690E+00   2.607690E+00   2.607690E+00   2.607690E+00   2.607690E+00   2.607690E+00   2.607690E+00   2.607690E+00   2.607690E+00   2.607690E+00   2.607690E+00   2.607690E+00   2.607690E+00   2.607690E+00   2.607690E+00   2.607690E+00   2.607690E+00   2.607690E+00   2.607690E+00   2.607690E+00   2.607690E+00   2.607690E+00   2.607690E+00   2.607690E+00   2.607690E+00   2.607690E+00   2.607690E+00   2.607690E+00   2.607690E+00   2.607690E+00   2.607690E+00   2.607690E+00   2.607690E+00   2.607690E+00   2.607690E+00   2.607690E+00
   1.350700E+00   1.350700E+00   1.350700E+00   1.350700E+00   1.350700E+00   1.350700E+00   1.350700E+00   1.350700E+00   1.350700E+00   1.350700E+00   1.350700E+00   1.350700E+00   1.350700E+00   1.350700E+00   1.350700E+00   1.350700E+00   1.350700E+00   1.350700E+00   1.350700E+00   1.350700E+00   1.350700E+00   1.350700E+00   1.350700E+00   1.350700E+00   1.350700E+00   1.350700E+00   1.350700E+00   1.350700E+00   1.350700E+00   1.350700E+00   1.350700E+00   1.350700E+00   1.350700E+00   1.350700E+00   1.350700E+00   1.350700E+00   2.674500E-02   2.674500E-02   2.674500E-02   2.674500E-02   2.674500E-02   2.674500E-02   2.674500E-02   2.674500E-02   2.674500E-02   2.674500E-02   2.674500E-02   2.674500E-02   2.674500E-02   2.674500E-02   2.674500E-02   2.674500E-02   2.674500E-02   2.674500E-02   2.674500E-02   2.674500E-02   2.674500E-02   2.674500E-02   2.674500E-02   2.607690E+00   2.607690E+00   2.607690E+00   2.607690E+00   2.607690E+00   2.607690E+00   2.607690E+00   2.607690E+00   2.607690E+00   2.607690E+00   2.607690E+00   2.607690E+00   2.607690E+00   2.607690E+00   2.607690E+00   2.607690E+00   2.607690E+00   2.607690E+00   2.607690E+00   2.674500E-02   2.674500E-02   2.674500E-02   2.674500E-02   2.674500E-02   2.674500E-02   2.607690E+00   2.607690E+00   2.607690E+00   2.607690E+00   2.607690E+00   2.607690E+00   2.607690E+00   2.607690E+00   2.607690E+00   2.607690E+00   2.607690E+00   2.607690E+00   2.607690E+00   2.607690E+00   2.674500E-02   2.674500E-02   2.674500E-02   2.674500E-02   2.674500E-02   2.674500E-02   2.674500E-02   2.674500E-02   2.674500E-02   2.607690E+00   2.607690E+00   2.607690E+00   2.607690E+00   2.607690E+00   2.607690E+00   2.607690E+00   2.607690E+00   2.607690E+00   2.607690E+00   2.607690E+00   2.607690E+00   2.607690E+00   2.607690E+00   2.607690E+00   2.607690E+00   2.607690E+00   2.607690E+00   2.607690E+00   2.607690E+00   2.607690E+00   2.607690E+00   2.607690E+00   2.607690E+00   2.607690E+00   2.607690E+00   2.607690E+00   2.607690E+00   2.607690E+00   2.607690E+00   2.607690E+00   2.607690E+00   2.607690E+00   2.607690E+00   2.607690E+00   2.607690E+00   2.607690E+00   2.607690E+00   2.607690E+00   2.607690E+00   2.607690E+00   2.607690E+00   2.607690E+00   2.607690E+00   2.607690E+00   2.607690E+00   2.607690E+00   2.607690E+00   2.607690E+00   2.607690E+00   2.607690E+00   2.607690E+00   2.607690E+00   2.607690E+00   2.607690E+00   2.607690E+00   2.607690E+00   2.607690E+00   2.607690E+00   2.607690E+00   2.607690E+00   2.607690E+00   2.607690E+00   2.607690E+00   2.607690E+00   2.607690E+00   2.607690E+00   2.607690E+00   2.607690E+00   2.607690E+00   2.607690E+00   2.607690E+00   2.607690E+00   2.607690E+00   2.607690E+00   2.607690E+00   2.607690E+00   2.607690E+00   2.607690E+00   2.607690E+00   2.607690E+00   2.607690E+00   2.607690E+00   2.607690E+00   2.607690E+00   2.607690E+00   2.607690E+00   2.607690E+00   2.607690E+00   2.607690E+00   2.607690E+00   2.607690E+00   2.607690E+00   2.607690E+00   2.607690E+00   2.607690E+00   2.607690E+00   2.674500E-02   2.674500E-02   2.674500E-02   2.607690E+00   2.607690E+00   2.607690E+00   2.607690E+00   2.607690E+00   2.607690E+00   2.607690E+00   2.607690E+00   2.607690E+00   2.607690E+00   2.607690E+00   2.607690E+00   2.607690E+00   2.607690E+00   2.607690E+00   2.607690E+00   2.607690E+00   2.607690E+00
   1.350700E+00   1.350700E+00   1.350700E+00   1.350700E+00   1.350700E+00   1.350700E+00   1.350700E+00   1.350700E+00   1.350700E+00   1.350700E+00   1.350700E+00   1.350700E+00   1.350700E+00   1.350700E+00   1.350700E+00   1.350700E+00   1.350700E+00   1.350700E+00   1.350700E+00   1.350700E+00   1.350700E+00   1.350700E+00   1.350700E+00   1.350700E+00   1.350700E+00   1.350700E+00   1.350700E+00   1.350700E+00   1.350700E+00   1.350700E+00   1.350700E+00   1.350700E+00   1.350700E+00   1.350700E+00   1.350700E+00   1.350700E+00   2.674500E-02   2.674500E-02   2.674500E-02   2.674500E-02   2.674500E-02   2.674500E-02   2.674500E-02   2.674500E-02   2.674500E-02   2.674500E-02   2.674500E-02   2.674500E-02   2.674500E-02   2.674500E-02   2.674500E-02   2.674500E-02   2.674500E-02   2.674500E-02   2.674500E-02   2.674500E-02   2.674500E-02   2.674500E-02   2.674500E-02   2.607690E+00   2.607690E+00   2.607690E+00   2.607690E+00   2.607690E+00   2.607690E+00   2.607690E+00   2.607690E+00   2.607690E+00   2.607690E+00   2.607690E+00   2.607690E+00   2.607690E+00   2.607690E+00   2.607690E+00   2.607690E+00   2.607690E+00   2.607690E+00   2.607690E+00   2.607690E+00   2.674500E-02   2.674500E-02   2.674500E-02   2.674500E-02   2.607690E+00   2.607690E+00   2.607690E+00   2.607690E+00   2.607690E+00   2.607690E+00   2.607690E+00   2.607690E+00   2.607690E+00   2.607690E+00   2.607690E+00   2.607690E+00   2.607690E+00   2.607690E+00   2.607690E+00   2.674500E-02   2.674500E-02   2.674500E-02   2.674500E-02   2.674500E-02   2.674500E-02   2.674500E-02   2.674500E-02   2.674500E-02   2.607690E+00   2.607690E+00   2.607690E+00   2.607690E+00   2.607690E+00   2.607690E+00   2.607690E+00   2.607690E+00   2.607690E+00   2.607690E+00   2.607690E+00   2.607690E+00   2.607690E+00   2.607690E+00   2.607690E+00   2.607690E+00   2.607690E+00   2.607690E+00   2.607690E+00   2.607690E+00   2.607690E+00   2.607690E+00   2.607690E+00   2.607690E+00   2.607690E+00   2.607690E+00   2.607690E+00   2.607690E+00   2.607690E+00   2.674500E-02   2.674500E-02   2.674500E-02   2.674500E-02   2.674500E-02   2.674500E-02   2.674500E-02   2.674500E-02   2.674500E-02   2.674500E-02   2.674500E-02   2.674500E-02   2.674500E-02   2.674500E-02   2.674500E-02   2.674500E-02   2.674500E-02   2.674500E-02   2.674500E-02   2.674500E-02   2.674500E-02   2.674500E-02   2.674500E-02   2.674500E-02   2.674500E-02   2.674500E-02   2.674500E-02   2.674500E-02   2.674500E-02   2.674500E-02   2.674500E-02   2.674500E-02   2.674500E-02   2.674500E-02   2.674500E-02   2.674500E-02   2.674500E-02   2.674500E-02   2.674500E-02   2.674500E-02   2.674500E-02   2.674500E-02   2.674500E-02   2.674500E-02   2.674500E-02   2.674500E-02   2.674500E-02   2.674500E-02   2.674500E-02   2.674500E-02   2.674500E-02   2.674500E-02   2.674500E-02   2.674500E-02   2.674500E-02   2.674500E-02   2.674500E-02   2.674500E-02   2.674500E-02   2.674500E-02   2.674500E-02   2.674500E-02   2.674500E-02   2.674500E-02   2.674500E-02   2.674500E-02   2.674500E-02   2.674500E-02   2.674500E-02   2.674500E-02   2.674500E-02   2.607690E+00   2.607690E+00   2.607690E+00   2.607690E+00   2.607690E+00   2.607690E+00   2.607690E+00   2.607690E+00   2.607690E+00   2.607690E+00   2.607690E+00   2.607690E+00   2.607690E+00   2.607690E+00   2.607690E+00   2.607690E+00   2.607690E+00   2.607690E+00
   1.350700E+00   1.350700E+00   1.350700E+00   1.350700E+00   1.350700E+00   1.350700E+00   1.350700E+00   1.350700E+00   1.350700E+00   1.350700E+00   1.350700E+00   1.350700E+00   1.350700E+00   1.350700E+00   1.350700E+00   1.350700E+00   1.350700E+00   1.350700E+00   1.350700E+00   1.350700E+00   1.350700E+00   1.350700E+00   1.350700E+00   1.350700E+00   1.350700E+00   1.350700E+00   1.350700E+00   1.350700E+00   2.607690E+00   2.674500E-02   2.674500E-02   2.674500E-02   2.674500E-02   2.674500E-02   2.607690E+00   2.607690E+00   2.607690E+00   2.607690E+00   2.607690E+00   2.607690E+00   2.607690E+00   2.607690E+00   2.607690E+00   2.607690E+00   2.607690E+00   2.607690E+00   2.607690E+00   2.607690E+00   2.607690E+00   2.607690E+00   2.607690E+00   2.607690E+00   2.607690E+00   2.607690E+00   2.607690E+00   2.607690E+00   2.607690E+00   2.607690E+00   2.607690E+00   2.607690E+00   2.607690E+00   2.607690E+00   2.607690E+00   2.607690E+00   2.607690E+00   2.607690E+00   2.607690E+00   2.607690E+00   2.607690E+00   2.607690E+00   2.607690E+00   2.607690E+00   2.607690E+00   2.607690E+00   2.607690E+00   2.607690E+00   2.607690E+00   2.607690E+00   2.607690E+00   2.674500E-02   2.674500E-02   2.674500E-02   2.674500E-02   2.607690E+00   2.607690E+00   2.607690E+00   2.607690E+00   2.674500E-02   2.674500E-02   2.674500E-02   2.674500E-02   2.674500E-02   2.674500E-02   2.674500E-02   2.674500E-02   2.674500E-02   2.674500E-02   2.674500E-02   2.674500E-02   2.674500E-02   2.674500E-02   2.674500E-02   2.674500E-02   2.674500E-02   2.674500E-02   2.674500E-02   2.674500E-02   2.674500E-02   2.607690E+00   2.607690E+00   2.607690E+00   2.607690E+00   2.607690E+00   2.607690E+00   2.607690E+00   2.607690E+00   2.607690E+00   2.607690E+00   2.607690E+00   2.607690E+00   2.607690E+00   2.607690E+00   2.607690E+00   2.607690E+00   2.674500E-02   2.674500E-02   2.674500E-02   2.674500E-02   2.674500E-02   2.674500E-02   2.674500E-02   2.674500E-02   2.674500E-02   2.674500E-02   2.674500E-02   2.674500E-02   2.674500E-02   2.674500E-02   2.674500E-02   2.674500E-02   2.674500E-02   2.674500E-02   2.674500E-02   2.674500E-02   2.674500E-02   2.674500E-02   2.674500E-02   2.674500E-02   2.674500E-02   2.674500E-02   2.674500E-02   2.674500E-02   2.674500E-02   2.674500E-02   2.674500E-02   2.674500E-02   2.674500E-02   2.674500E-02   2.674500E-02   2.674500E-02   2.674500E-02   2.674500E-02   2.674500E-02   2.674500E-02   2.674500E-02   2.674500E-02   2.674500E-02   2.674500E-02   2.674500E-02   2.674500E-02   2.674500E-02   2.674500E-02   2.674500E-02   2.674500E-02   2.674500E-02   2.674500E-02   2.674500E-02   2.674500E-02   2.674500E-02   2.674500E-02   2.674500E-02   2.674500E-02   2.674500E-02   2.674500E-02   2.674500E-02   2.674500E-02   2.674500E-02   2.674500E-02   2.674500E-02   2.674500E-02   2.674500E-02   2.674500E-02   2.674500E-02   2.674500E-02   2.674500E-02   2.674500E-02   2.674500E-02   2.674500E-02   2.674500E-02   2.674500E-02   2.674500E-02   2.674500E-02   2.674500E-02   2.674500E-02   2.674500E-02   2.674500E-02   2.607690E+00   2.607690E+00   2.607690E+00   2.607690E+00   2.607690E+00   2.607690E+00   2.607690E+00   2.607690E+00   2.607690E+00   2.607690E+00   2.607690E+00   2.607690E+00   2.607690E+00   2.607690E+00   2.607690E+00   2.607690E+00   2.607690E+00   2.607690E+00   2.607690E+00
   1.350700E+00   1.350700E+00   1.350700E+00   1.350700E+00   1.350700E+00   1.350700E+00   1.350700E+00   1.350700E+00   1.350700E+00   1.350700E+00   1.350700E+00   1.350700E+00   1.350700E+00   1.350700E+00   1.350700E+00   1.350700E+00   1.350700E+00   1.350700E+00   1.350700E+00   1.350700E+00   2.674500E-02   2.674500E-02   2.674500E-02   2.674500E-02   2.674500E-02   2.674500E-02   2.674500E-02   2.674500E-02   2.674500E-02   2.674500E-02   2.674500E-02   2.674500E-02   2.674500E-02   2.607690E+00   2.607690E+00   2.607690E+00   2.607690E+00   2.607690E+00   2.607690E+00   2.607690E+00   2.607690E+00   2.607690E+00   2.607690E+00   2.607690E+00   2.607690E+00   2.607690E+00   2.607690E+00   2.607690E+00   2.607690E+00   2.607690E+00   2.607690E+00   2.607690E+00   2.607690E+00   2.607690E+00   2.607690E+00   2.607690E+00   2.607690E+00   2.607690E+00   2.607690E+00   2.607690E+00   2.607690E+00   2.607690E+00   2.607690E+00   2.607690E+00   2.607690E+00   2.607690E+00   2.607690E+00   2.607690E+00   2.607690E+00   2.607690E+00   2.607690E+00   2.607690E+00   2.607690E+00   2.607690E+00   2.607690E+00   2.607690E+00   2.607690E+00   2.607690E+00   2.607690E+00   2.674500E-02   2.674500E-02   2.674500E-02   2.674500E-02   2.607690E+00   2.607690E+00   2.607690E+00   2.607690E+00   2.607690E+00   2.674500E-02   2.674500E-02   2.674500E-02   2.674500E-02   2.674500E-02   2.674500E-02   2.674500E-02   2.674500E-02   2.674500E-02   2.674500E-02   2.674500E-02   2.674500E-02   2.674500E-02   2.674500E-02   2.674500E-02   2.674500E-02   2.674500E-02   2.674500E-02   2.674500E-02   2.674500E-02   2.607690E+00   2.607690E+00   2.607690E+00   2.607690E+00   2.607690E+00   2.607690E+00   2.607690E+00   2.607690E+00   2.607690E+00   2.607690E+00   2.607690E+00   2.607690E+00   2.607690E+00   2.607690E+00   2.607690E+00   2.607690E+00   2.607690E+00   2.674500E-02   2.674500E-02   2.674500E-02   2.674500E-02   2.674500E-02   2.674500E-02   2.674500E-02   2.674500E-02   2.674500E-02   2.674500E-02   2.674500E-02   2.674500E-02   2.674500E-02   2.674500E-02   2.674500E-02   2.674500E-02   2.674500E-02   2.674500E-02   2.674500E-02   2.674500E-02   2.674500E-02   2.674500E-02   2.674500E-02   2.674500E-02   2.674500E-02   2.674500E-02   2.674500E-02   2.674500E-02   2.674500E-02   2.674500E-02   2.674500E-02   2.674500E-02   2.674500E-02   2.674500E-02   2.674500E-02   2.674500E-02   2.674500E-02   2.674500E-02   2.674500E-02   2.674500E-02   2.674500E-02   2.674500E-02   2.674500E-02   2.674500E-02   2.674500E-02   2.674500E-02   2.674500E-02   2.674500E-02   2.674500E-02   2.674500E-02   2.674500E-02   2.674500E-02   2.674500E-02   2.674500E-02   2.674500E-02   2.674500E-02   2.674500E-02   2.674500E-02   2.674500E-02   2.674500E-02   2.674500E-02   2.674500E-02   2.674500E-02   2.674500E-02   2.674500E-02   2.674500E-02   2.674500E-02   2.674500E-02   2.674500E-02   2.674500E-02   2.674500E-02   2.674500E-02   2.674500E-02   2.674500E-02   2.674500E-02   2.674500E-02   2.674500E-02   2.674500E-02   2.674500E-02   2.674500E-02   2.674500E-02   2.607690E+00   2.607690E+00   2.607690E+00   2.607690E+00   2.607690E+00   2.607690E+00   2.607690E+00   2.607690E+00   2.607690E+00   2.607690E+00   2.607690E+00   2.607690E+00   2.607690E+00   2.607690E+00   2.607690E+00   2.607690E+00   2.607690E+00   2.607690E+00   2.607690E+00
   1.350700E+00   1.350700E+00   1.350700E+00   1.350700E+00   1.350700E+00   1.350700E+00   1.350700E+00   1.350700E+00   1.350700E+00   1.350700E+00   1.350700E+00   1.350700E+00   1.350700E+00   1.350700E+00   1.350700E+00   1.350700E+00   1.350700E+00   1.350700E+00   1.350700E+00   2.674500E-02   2.674500E-02   2.674500E-02   2.674500E-02   2.674500E-02   2.674500E-02   2.674500E-02   2.674500E-02   2.674500E-02   2.674500E-02   2.674500E-02   2.674500E-02   2.674500E-02   2.607690E+00   2.607690E+00   2.607690E+00   2.607690E+00   2.607690E+00   2.607690E+00   2.607690E+00   2.607690E+00   2.607690E+00   2.607690E+00   2.607690E+00   2.607690E+00   2.607690E+00   2.607690E+00   2.607690E+00   2.607690E+00   2.607690E+00   2.607690E+00   2.607690E+00   2.607690E+00   2.607690E+00   2.607690E+00   2.607690E+00   2.607690E+00   2.607690E+00   2.607690E+00   2.607690E+00   2.607690E+00   2.607690E+00   2.607690E+00   2.607690E+00   2.607690E+00   2.607690E+00   2.607690E+00   2.607690E+00   2.607690E+00   2.607690E+00   2.607690E+00   2.607690E+00   2.607690E+00   2.607690E+00   2.607690E+00   2.607690E+00   2.607690E+00   2.607690E+00   2.607690E+00   2.607690E+00   2.674500E-02   2.674500E-02   2.607690E+00   2.607690E+00   2.607690E+00   2.607690E+00   2.607690E+00   2.607690E+00   2.607690E+00   2.674500E-02   2.674500E-02   2.674500E-02   2.674500E-02   2.674500E-02   2.674500E-02   2.674500E-02   2.674500E-02   2.674500E-02   2.674500E-02   2.674500E-02   2.674500E-02   2.674500E-02   2.674500E-02   2.674500E-02   2.674500E-02   2.674500E-02   2.674500E-02   2.674500E-02   2.674500E-02   2.674500E-02   2.674500E-02   2.607690E+00   2.607690E+00   2.607690E+00   2.607690E+00   2.607690E+00   2.607690E+00   2.607690E+00   2.607690E+00   2.607690E+00   2.607690E+00   2.607690E+00   2.607690E+00   2.607690E+00   2.607690E+00   2.607690E+00   2.607690E+00   2.674500E-02   2.674500E-02   2.674500E-02   2.674500E-02   2.674500E-02   2.674500E-02   2.674500E-02   2.674500E-02   2.674500E-02   2.674500E-02   2.674500E-02   2.674500E-02   2.674500E-02   2.674500E-02   2.674500E-02   2.674500E-02   2.674500E-02   2.674500E-02   2.674500E-02   2.674500E-02   2.674500E-02   2.674500E-02   2.674500E-02   2.674500E-02   2.674500E-02   2.674500E-02   2.674500E-02   2.674500E-02   2.674500E-02   2.674500E-02   2.674500E-02   2.674500E-02   2.674500E-02   2.674500E-02   2.674500E-02   2.674500E-02   2.674500E-02   2.674500E-02   2.674500E-02   2.674500E-02   2.674500E-02   2.674500E-02   2.674500E-02   2.674500E-02   2.674500E-02   2.674500E-02   2.674500E-02   2.674500E-02   2.674500E-02   2.674500E-02   2.674500E-02   2.674500E-02   2.674500E-02   2.674500E-02   2.674500E-02   2.674500E-02   2.674500E-02   2.674500E-02   2.674500E-02   2.674500E-02   2.674500E-02   2.674500E-02   2.674500E-02   2.674500E-02   2.674500E-02   2.674500E-02   2.674500E-02   2.674500E-02   2.674500E-02   2.674500E-02   2.674500E-02   2.674500E-02   2.674500E-02   2.674500E-02   2.674500E-02   2.674500E-02   2.674500E-02   2.674500E-02   2.674500E-02   2.674500E-02   2.607690E+00   2.607690E+00   2.607690E+00   2.607690E+00   2.607690E+00   2.607690E+00   2.607690E+00   2.607690E+00   2.607690E+00   2.607690E+00   2.607690E+00   2.607690E+00   2.607690E+00   2.607690E+00   2.607690E+00   2.607690E+00   2.607690E+00   2.607690E+00   2.607690E+00
   1.350700E+00   1.350700E+00   1.350700E+00   1.350700E+00   1.350700E+00   1.350700E+00   1.350700E+00   1.350700E+00   1.350700E+00   1.350700E+00   1.350700E+00   1.350700E+00   1.350700E+00   1.350700E+00   1.350700E+00   1.350700E+00   1.350700E+00   1.350700E+00   1.350700E+00   2.674500E-02   2.674500E-02   2.674500E-02   2.674500E-02   2.674500E-02   2.674500E-02   2.674500E-02   2.674500E-02   2.674500E-02   2.674500E-02   2.674500E-02   2.674500E-02   2.607690E+00   2.607690E+00   2.607690E+00   2.607690E+00   2.607690E+00   2.607690E+00   2.607690E+00   2.607690E+00   2.607690E+00   2.607690E+00   2.607690E+00   2.607690E+00   2.607690E+00   2.607690E+00   2.607690E+00   2.607690E+00   2.607690E+00   2.607690E+00   2.607690E+00   2.607690E+00   2.607690E+00   2.607690E+00   2.607690E+00   2.607690E+00   2.607690E+00   2.607690E+00   2.607690E+00   2.607690E+00   2.607690E+00   2.607690E+00   2.607690E+00   2.607690E+00   2.607690E+00   2.607690E+00   2.607690E+00   2.607690E+00   2.607690E+00   2.607690E+00   2.607690E+00   2.607690E+00   2.607690E+00   2.607690E+00   2.607690E+00   2.607690E+00   2.607690E+00   2.607690E+00   2.607690E+00   2.607690E+00   2.674500E-02   2.607690E+00   2.607690E+00   2.607690E+00   2.607690E+00   2.607690E+00   2.607690E+00   2.607690E+00   2.607690E+00   2.607690E+00   2.674500E-02   2.674500E-02   2.674500E-02   2.674500E-02   2.674500E-02   2.674500E-02   2.674500E-02   2.674500E-02   2.674500E-02   2.674500E-02   2.674500E-02   2.674500E-02   2.674500E-02   2.674500E-02   2.674500E-02   2.674500E-02   2.674500E-02   2.674500E-02   2.674500E-02   2.674500E-02   2.674500E-02   2.607690E+00   2.607690E+00   2.607690E+00   2.607690E+00   2.607690E+00   2.607690E+00   2.607690E+00   2.607690E+00   2.607690E+00   2.607690E+00   2.607690E+00   2.607690E+00   2.607690E+00   2.607690E+00   2.607690E+00   2.607690E+00   2.674500E-02   2.674500E-02   2.674500E-02   2.674500E-02   2.674500E-02   2.674500E-02   2.674500E-02   2.674500E-02   2.674500E-02   2.674500E-02   2.674500E-02   2.674500E-02   2.674500E-02   2.674500E-02   2.674500E-02   2.674500E-02   2.674500E-02   2.674500E-02   2.674500E-02   2.674500E-02   2.674500E-02   2.674500E-02   2.674500E-02   2.674500E-02   2.674500E-02   2.674500E-02   2.674500E-02   2.674500E-02   2.674500E-02   2.674500E-02   2.674500E-02   2.674500E-02   2.674500E-02   2.674500E-02   2.674500E-02   2.674500E-02   2.674500E-02   2.674500E-02   2.674500E-02   2.674500E-02   2.674500E-02   2.674500E-02   2.674500E-02   2.674500E-02   2.674500E-02   2.674500E-02   2.674500E-02   2.674500E-02   2.674500E-02   2.674500E-02   2.674500E-02   2.674500E-02   2.674500E-02   2.674500E-02   2.674500E-02   2.674500E-02   2.674500E-02   2.674500E-02   2.674500E-02   2.674500E-02   2.674500E-02   2.674500E-02   2.674500E-02   2.674500E-02   2.674500E-02   2.674500E-02   2.674500E-02   2.674500E-02   2.674500E-02   2.674500E-02   2.674500E-02   2.674500E-02   2.674500E-02   2.674500E-02   2.674500E-02   2.674500E-02   2.674500E-02   2.674500E-02   2.674500E-02   2.607690E+00   2.607690E+00   2.607690E+00   2.607690E+00   2.607690E+00   2.607690E+00   2.607690E+00   2.607690E+00   2.607690E+00   2.607690E+00   2.607690E+00   2.607690E+00   2.607690E+00   2.607690E+00   2.607690E+00   2.607690E+00   2.607690E+00   2.607690E+00   2.607690E+00   2.607690E+00