# WEL package for MODFLOW-2005 generated by Flopy 3.3.5
       108         0 
       108         0 # stress period 1
         1       116        35         -8816.0
         1       110        35         -1924.0
         1       110        36         -5771.0
         1       160        48        -31722.0
         1       160        48        -16284.0
         1        59        51        -49609.0
         1        59        54        -28069.0
         1        61        55        -22495.0
         1        23        76          -791.0
         1        58        76       -112242.0
         1        58        76       -112242.0
         1        58        84        -43486.0
         1        58        88        -53236.0
         1        58        88         -1692.0
         1        60        88          -924.0
         1        60        88         -1420.0
         1       102       111        -59204.0
         1       102       112        -59204.0
         1       104       112        -59204.0
         1       106       118       -109951.0
         1       106       119       -109951.0
         1       109       119       -109951.0
         1       188       120         -8851.0
         1        92       131        -11324.0
         1        81       132          -806.0
         1        81       132         -2120.0
         1        33       134        -23167.0
         1        95       135         -1164.0
         1        26       136        -91810.0
         1        19       139         -1397.0
         1        55       139         -9878.0
         1       130       140         -2560.0
         1       130       141         -2259.0
         1       130       141          -583.0
         1        54       141        -15179.0
         1        18       143        -59556.0
         1       162       145         -1377.0
         1       132       146        -40868.0
         1         2       147        -74658.0
         1       154       148         -1046.0
         1       133       148         -1963.0
         1        81       149          -616.0
         1        23       150        -41402.0
         1       142       150         -1102.0
         1       142       150          -650.0
         1         8       151        -55309.0
         1        43       151        -75089.0
         1        17       152         -2793.0
         1       111       154         -1925.0
         1        62       157         -1242.0
         1        46       161        -35514.0
         1       132       161        -12288.0
         1        92       164        -28290.0
         1        92       164        -27458.0
         1       202       166        -14839.0
         1        66       169         -7653.0
         1        60       169       -102200.0
         1        60       169        -53056.0
         1       109       170          -510.0
         1        40       172        -39736.0
         1       141       172         -1185.0
         1       195       175        -13241.0
         1        19       176        -26632.0
         1       188       178        -14132.0
         1       140       179        -12492.0
         1        62       179        -55588.0
         1       131       180         -1224.0
         1       116       180        -58594.0
         1       141       180        -18651.0
         1       142       180         -1352.0
         1       116       181        -74383.0
         1        44       182         -8162.0
         1       139       183        -40509.0
         1       134       186         -1721.0
         1       134       186         -2072.0
         1       134       187          -655.0
         1         4       189        -84773.0
         1         2       190        -39744.0
         1         5       190         -7379.0
         1       177       192         -2942.0
         1        26       193        -46830.0
         1       106       193        -22101.0
         1       106       193        -43063.0
         1        32       194        -68105.0
         1        37       198        -51262.0
         1       174       200         -3638.0
         1       170       200        -33846.0
         1       170       200        -33846.0
         1        32       200        -12523.0
         1       136       204          -567.0
         1       124       204        -11335.0
         1        32       204        -35400.0
         1        33       205        -26739.0
         1        71       205        -27458.0
         1        69       206         -3880.0
         1        69       206         -1940.0
         1       153       209          -738.0
         1       140       210        -21317.0
         1        81       211         -4763.0
         1        82       211         -3468.0
         1        76       216        -13570.0
         1        76       216        -12129.0
         1       152       219        -30960.0
         1       111       221         -5916.0
         1       111       221         -5916.0
         1       169       222         -3791.0
         1       165       225        -20872.0
         1       103       225        -10045.0
